@<TRIPOS>MOLECULE
*****
 8105 6687 0 0 0
SMALL
GASTEIGER

@<TRIPOS>ATOM
      1 TiA        27.1090   32.2100   28.7570 Ti      1  H101        0.0000
      2 TiA         4.2690   32.2100   28.7570 Ti      1  H101        0.0000
      3 TiA         8.6290   21.0800   28.9870 Ti      1  H101        0.0000
      4 TiA        31.4690   10.0000   28.9870 Ti      1  H101        0.0000
      5 TiA        10.5090   17.4100   46.3670 Ti      1  H101        0.0000
      6 TiA        33.3490   17.4100   46.3670 Ti      1  H101        0.0000
      7 TiA        33.3490    6.3300   46.3670 Ti      1  H101        0.0000
      8 TiA        10.5090    6.3300   46.3670 Ti      1  H101        0.0000
      9 TiA        33.3490   28.4900   46.3670 Ti      1  H101        0.0000
     10 TiA        21.9290   28.4900   46.3670 Ti      1  H101        0.0000
     11 TiA        10.5090   28.4900   46.3670 Ti      1  H101        0.0000
     12 TiA        21.9290    6.3300   46.3670 Ti      1  H101        0.0000
     13 TiA        21.9290   17.4100   46.3670 Ti      1  H101        0.0000
     14 TiA        27.4190   30.3600   31.3970 Ti      1  H101        0.0000
     15 TiA        27.6690    0.7800   31.2270 Ti      1  H101        0.0000
     16 TiA         4.5790   30.3600   31.3970 Ti      1  H101        0.0000
     17 TiA         4.8290    0.7800   31.2270 Ti      1  H101        0.0000
     18 TiA         8.5790   22.9800   31.3770 Ti      1  H101        0.0000
     19 TiA        31.4190   11.9000   31.3770 Ti      1  H101        0.0000
     20 TiA         4.6290   26.7200   31.3570 Ti      1  H101        0.0000
     21 TiA         4.6290    4.5600   31.3570 Ti      1  H101        0.0000
     22 TiA        27.4690   26.7200   31.3570 Ti      1  H101        0.0000
     23 TiA         4.5790   19.2800   31.3970 Ti      1  H101        0.0000
     24 TiA         4.8290   22.9400   31.2270 Ti      1  H101        0.0000
     25 TiA         4.5790    8.2000   31.3970 Ti      1  H101        0.0000
     26 TiA         4.6290   15.6400   31.3570 Ti      1  H101        0.0000
     27 TiA         4.8290   11.8600   31.2270 Ti      1  H101        0.0000
     28 TiA        15.9990    8.2000   31.3970 Ti      1  H101        0.0000
     29 TiA        16.0490    4.5600   31.3570 Ti      1  H101        0.0000
     30 TiA        16.2490   11.8600   31.2270 Ti      1  H101        0.0000
     31 TiA        16.0490   26.7200   31.3570 Ti      1  H101        0.0000
     32 TiA        16.0490   15.6400   31.3570 Ti      1  H101        0.0000
     33 TiA        15.9990   30.3600   31.3970 Ti      1  H101        0.0000
     34 TiA        27.6690   22.9400   31.2270 Ti      1  H101        0.0000
     35 TiA        27.4690    4.5600   31.3570 Ti      1  H101        0.0000
     36 TiA        16.2490    0.7800   31.2270 Ti      1  H101        0.0000
     37 TiA        27.4190   19.2800   31.3970 Ti      1  H101        0.0000
     38 TiA        16.2490   22.9400   31.2270 Ti      1  H101        0.0000
     39 TiA        15.9990   19.2800   31.3970 Ti      1  H101        0.0000
     40 TiA        10.4590   23.0600   43.7570 Ti      1  H101        0.0000
     41 TiA        33.2990   11.9800   43.7570 Ti      1  H101        0.0000
     42 TiA        10.4590   11.9800   43.7570 Ti      1  H101        0.0000
     43 TiA        21.8790    0.9000   43.7570 Ti      1  H101        0.0000
     44 TiA        33.2990   23.0600   43.7570 Ti      1  H101        0.0000
     45 TiA        33.2990    0.9000   43.7570 Ti      1  H101        0.0000
     46 TiA        10.4590    0.9000   43.7570 Ti      1  H101        0.0000
     47 TiA        21.8790   11.9800   43.7570 Ti      1  H101        0.0000
     48 TiA        21.8790   23.0600   43.7570 Ti      1  H101        0.0000
     49 TiA        27.4690   15.6400   31.3570 Ti      1  H101        0.0000
     50 TiA         8.3590   19.2500   31.4270 Ti      1  H101        0.0000
     51 TiA        19.9990    0.8200   31.3770 Ti      1  H101        0.0000
     52 TiA         8.5790   11.9000   31.3770 Ti      1  H101        0.0000
     53 TiA        31.4190   22.9800   31.3770 Ti      1  H101        0.0000
     54 TiA        31.1990    8.1700   31.4270 Ti      1  H101        0.0000
     55 TiA        19.9990   11.9000   31.3770 Ti      1  H101        0.0000
     56 TiA        10.4790   19.3600   43.7370 Ti      1  H101        0.0000
     57 TiA        33.3190    8.2800   43.7370 Ti      1  H101        0.0000
     58 TiA        33.3190   19.3600   43.7370 Ti      1  H101        0.0000
     59 TiA        21.8990   30.4400   43.7370 Ti      1  H101        0.0000
     60 TiA        10.4790    8.2800   43.7370 Ti      1  H101        0.0000
     61 TiA        33.3190   30.4400   43.7370 Ti      1  H101        0.0000
     62 TiA        21.8990    8.2800   43.7370 Ti      1  H101        0.0000
     63 TiA        10.4790   30.4400   43.7370 Ti      1  H101        0.0000
     64 TiA        21.8990   19.3600   43.7370 Ti      1  H101        0.0000
     65 TiA        10.4490   15.7300   43.6270 Ti      1  H101        0.0000
     66 TiA        33.2890   15.7300   43.6270 Ti      1  H101        0.0000
     67 TiA        10.4490   26.8100   43.6270 Ti      1  H101        0.0000
     68 TiA        33.2890    4.6500   43.6270 Ti      1  H101        0.0000
     69 TiA        21.8690    4.6500   43.6270 Ti      1  H101        0.0000
     70 TiA        33.2890   26.8100   43.6270 Ti      1  H101        0.0000
     71 TiA        10.4490    4.6500   43.6270 Ti      1  H101        0.0000
     72 TiA        21.8690   26.8100   43.6270 Ti      1  H101        0.0000
     73 TiA        21.8690   15.7300   43.6270 Ti      1  H101        0.0000
     74 TiA         8.3290   15.5700   31.3970 Ti      1  H101        0.0000
     75 TiA        31.1690   15.5700   31.3970 Ti      1  H101        0.0000
     76 TiA        27.4190    8.2000   31.3970 Ti      1  H101        0.0000
     77 TiA        27.6690   11.8600   31.2270 Ti      1  H101        0.0000
     78 TiA        31.1990   19.2500   31.4270 Ti      1  H101        0.0000
     79 TiA        19.7790   30.3300   31.4270 Ti      1  H101        0.0000
     80 TiA        19.7490    4.4900   31.3970 Ti      1  H101        0.0000
     81 TiA         8.3590    8.1700   31.4270 Ti      1  H101        0.0000
     82 TiA         8.3290   26.6500   31.3970 Ti      1  H101        0.0000
     83 TiA        19.7790    8.1700   31.4270 Ti      1  H101        0.0000
     84 TiA        31.1690    4.4900   31.3970 Ti      1  H101        0.0000
     85 TiA        12.2190   19.3000   31.3770 Ti      1  H101        0.0000
     86 TiA         0.7990    8.2200   31.3770 Ti      1  H101        0.0000
     87 TiA        23.6390   30.3800   31.3770 Ti      1  H101        0.0000
     88 TiA        31.1690   26.6500   31.3970 Ti      1  H101        0.0000
     89 TiA         8.3290    4.4900   31.3970 Ti      1  H101        0.0000
     90 TiA        19.7490   26.6500   31.3970 Ti      1  H101        0.0000
     91 TiA        19.7490   15.5700   31.3970 Ti      1  H101        0.0000
     92 TiA         0.8790   15.7000   31.3770 Ti      1  H101        0.0000
     93 TiA        12.2990   15.7000   31.3770 Ti      1  H101        0.0000
     94 TiA         0.8790    4.6200   31.3770 Ti      1  H101        0.0000
     95 TiA         0.7990   19.3000   31.3770 Ti      1  H101        0.0000
     96 TiA        31.4190    0.8200   31.3770 Ti      1  H101        0.0000
     97 TiA        23.7190    4.6200   31.3770 Ti      1  H101        0.0000
     98 TiA        12.2190    8.2200   31.3770 Ti      1  H101        0.0000
     99 TiA        12.2990   26.7800   31.3770 Ti      1  H101        0.0000
    100 TiA         0.8790   26.7800   31.3770 Ti      1  H101        0.0000
    101 TiA        23.7190   26.7800   31.3770 Ti      1  H101        0.0000
    102 TiA         8.5790    0.8200   31.3770 Ti      1  H101        0.0000
    103 TiA        12.2990    4.6200   31.3770 Ti      1  H101        0.0000
    104 TiA         0.7990   30.3800   31.3770 Ti      1  H101        0.0000
    105 TiA         2.8990   11.9000   43.5470 Ti      1  H101        0.0000
    106 TiA         2.8990   22.9800   43.5470 Ti      1  H101        0.0000
    107 TiA        25.7390    0.8200   43.5470 Ti      1  H101        0.0000
    108 TiA        14.3190   11.9000   43.5470 Ti      1  H101        0.0000
    109 TiA        14.3190   22.9800   43.5470 Ti      1  H101        0.0000
    110 TiA         2.8990    0.8200   43.5470 Ti      1  H101        0.0000
    111 TiA        14.3190    0.8200   43.5470 Ti      1  H101        0.0000
    112 TiA        25.7390   22.9800   43.5470 Ti      1  H101        0.0000
    113 TiA        25.7390   11.9000   43.5470 Ti      1  H101        0.0000
    114 TiA         2.9090   15.5500   43.7070 Ti      1  H101        0.0000
    115 TiA         2.9090   26.6300   43.7070 Ti      1  H101        0.0000
    116 TiA         2.9090    4.4700   43.7070 Ti      1  H101        0.0000
    117 TiA        14.3290   15.5500   43.7070 Ti      1  H101        0.0000
    118 TiA        25.7490    4.4700   43.7070 Ti      1  H101        0.0000
    119 TiA        25.7490   26.6300   43.7070 Ti      1  H101        0.0000
    120 TiA        14.3290   26.6300   43.7070 Ti      1  H101        0.0000
    121 TiA        14.3290    4.4700   43.7070 Ti      1  H101        0.0000
    122 TiA        25.7490   15.5500   43.7070 Ti      1  H101        0.0000
    123 TiA        23.7190   15.7000   31.3770 Ti      1  H101        0.0000
    124 TiA        19.9990   22.9800   31.3770 Ti      1  H101        0.0000
    125 TiA         6.7290   22.9800   43.5570 Ti      1  H101        0.0000
    126 TiA         6.7290   11.9000   43.5570 Ti      1  H101        0.0000
    127 TiA        18.1490    0.8200   43.5570 Ti      1  H101        0.0000
    128 TiA        29.5690    0.8200   43.5570 Ti      1  H101        0.0000
    129 TiA        29.5690   22.9800   43.5570 Ti      1  H101        0.0000
    130 TiA        29.5690   11.9000   43.5570 Ti      1  H101        0.0000
    131 TiA        18.1490   11.9000   43.5570 Ti      1  H101        0.0000
    132 TiA         6.7290    0.8200   43.5570 Ti      1  H101        0.0000
    133 TiA        18.1490   22.9800   43.5570 Ti      1  H101        0.0000
    134 TiA        23.6390    8.2200   31.3770 Ti      1  H101        0.0000
    135 TiA        12.2190   30.3800   31.3770 Ti      1  H101        0.0000
    136 TiA        23.6390   19.3000   31.3770 Ti      1  H101        0.0000
    137 TiA         6.7390   19.3400   43.5870 Ti      1  H101        0.0000
    138 TiA         6.7390    8.2600   43.5870 Ti      1  H101        0.0000
    139 TiA        29.5790   30.4200   43.5870 Ti      1  H101        0.0000
    140 TiA        18.1590   30.4200   43.5870 Ti      1  H101        0.0000
    141 TiA        18.1590    8.2600   43.5870 Ti      1  H101        0.0000
    142 TiA        29.5790   19.3400   43.5870 Ti      1  H101        0.0000
    143 TiA        29.5790    8.2600   43.5870 Ti      1  H101        0.0000
    144 TiA         6.7390   30.4200   43.5870 Ti      1  H101        0.0000
    145 TiA        18.1590   19.3400   43.5870 Ti      1  H101        0.0000
    146 TiA         1.0090   12.0500   31.3370 Ti      1  H101        0.0000
    147 TiA        12.4290   23.1300   31.3370 Ti      1  H101        0.0000
    148 TiA        23.8490    0.9700   31.3370 Ti      1  H101        0.0000
    149 TiA         4.7890   28.6000   28.8570 Ti      1  H101        0.0000
    150 TiA        27.6290   28.6000   28.8570 Ti      1  H101        0.0000
    151 TiA         4.2190    2.6600   28.9970 Ti      1  H101        0.0000
    152 TiA        27.0590    2.6600   28.9970 Ti      1  H101        0.0000
    153 TiA        12.4290   12.0500   31.3370 Ti      1  H101        0.0000
    154 TiA         1.0090   23.1300   31.3370 Ti      1  H101        0.0000
    155 TiA        31.1990   30.3300   31.4270 Ti      1  H101        0.0000
    156 TiA         8.3590   30.3300   31.4270 Ti      1  H101        0.0000
    157 TiA         1.0090    0.9700   31.3370 Ti      1  H101        0.0000
    158 TiA         2.9290   19.3000   43.6570 Ti      1  H101        0.0000
    159 TiA         2.9290    8.2200   43.6570 Ti      1  H101        0.0000
    160 TiA        25.7690   30.3800   43.6570 Ti      1  H101        0.0000
    161 TiA        14.3490   19.3000   43.6570 Ti      1  H101        0.0000
    162 TiA        14.3490    8.2200   43.6570 Ti      1  H101        0.0000
    163 TiA         2.9290   30.3800   43.6570 Ti      1  H101        0.0000
    164 TiA        14.3490   30.3800   43.6570 Ti      1  H101        0.0000
    165 TiA        25.7690    8.2200   43.6570 Ti      1  H101        0.0000
    166 TiA        25.7690   19.3000   43.6570 Ti      1  H101        0.0000
    167 TiA        19.7790   19.2500   31.4270 Ti      1  H101        0.0000
    168 TiA        12.4290    0.9700   31.3370 Ti      1  H101        0.0000
    169 TiA        23.8490   12.0500   31.3370 Ti      1  H101        0.0000
    170 TiA        23.8490   23.1300   31.3370 Ti      1  H101        0.0000
    171 TiA         4.7890   17.5200   28.8570 Ti      1  H101        0.0000
    172 TiA         4.7890    6.4400   28.8570 Ti      1  H101        0.0000
    173 TiA         6.6490   15.7500   43.7570 Ti      1  H101        0.0000
    174 TiA         6.6490   26.8300   43.7570 Ti      1  H101        0.0000
    175 TiA         6.6490    4.6700   43.7570 Ti      1  H101        0.0000
    176 TiA        18.0690    4.6700   43.7570 Ti      1  H101        0.0000
    177 TiA        29.4890   26.8300   43.7570 Ti      1  H101        0.0000
    178 TiA        29.4890    4.6700   43.7570 Ti      1  H101        0.0000
    179 TiA        29.4890   15.7500   43.7570 Ti      1  H101        0.0000
    180 TiA        18.0690   26.8300   43.7570 Ti      1  H101        0.0000
    181 TiA        18.0690   15.7500   43.7570 Ti      1  H101        0.0000
    182 TiA         4.2690   10.0500   28.7570 Ti      1  H101        0.0000
    183 TiA        16.2090    6.4400   28.8570 Ti      1  H101        0.0000
    184 TiA         4.2190   24.8200   28.9970 Ti      1  H101        0.0000
    185 TiA        16.2090   28.6000   28.8570 Ti      1  H101        0.0000
    186 TiA        15.6890   21.1300   28.7570 Ti      1  H101        0.0000
    187 TiA         4.2190   13.7400   28.9970 Ti      1  H101        0.0000
    188 TiA         4.2690   21.1300   28.7570 Ti      1  H101        0.0000
    189 TiA        27.0590   24.8200   28.9970 Ti      1  H101        0.0000
    190 TiA        15.6390   24.8200   28.9970 Ti      1  H101        0.0000
    191 TiA        15.6890   10.0500   28.7570 Ti      1  H101        0.0000
    192 TiA        15.6390   13.7400   28.9970 Ti      1  H101        0.0000
    193 TiA        27.6290   17.5200   28.8570 Ti      1  H101        0.0000
    194 TiA        16.2090   17.5200   28.8570 Ti      1  H101        0.0000
    195 TiA        15.6390    2.6600   28.9970 Ti      1  H101        0.0000
    196 TiA        15.6890   32.2100   28.7570 Ti      1  H101        0.0000
    197 TiA        27.1090   21.1300   28.7570 Ti      1  H101        0.0000
    198 TiA        10.7690   21.2400   46.3470 Ti      1  H101        0.0000
    199 TiA        33.6090   10.1600   46.3470 Ti      1  H101        0.0000
    200 TiA        33.6090   21.2400   46.3470 Ti      1  H101        0.0000
    201 TiA        22.1890   32.3200   46.3470 Ti      1  H101        0.0000
    202 TiA        10.7690   10.1600   46.3470 Ti      1  H101        0.0000
    203 TiA        33.6090   32.3200   46.3470 Ti      1  H101        0.0000
    204 TiA        10.7690   32.3200   46.3470 Ti      1  H101        0.0000
    205 TiA        22.1890   10.1600   46.3470 Ti      1  H101        0.0000
    206 TiA        22.1890   21.2400   46.3470 Ti      1  H101        0.0000
    207 TiA        10.3190   13.9000   46.2170 Ti      1  H101        0.0000
    208 TiA        10.3190   24.9800   46.2170 Ti      1  H101        0.0000
    209 TiA        33.1590   13.9000   46.2170 Ti      1  H101        0.0000
    210 TiA        21.7390    2.8200   46.2170 Ti      1  H101        0.0000
    211 TiA        33.1590   24.9800   46.2170 Ti      1  H101        0.0000
    212 TiA        33.1590    2.8200   46.2170 Ti      1  H101        0.0000
    213 TiA        10.3190    2.8200   46.2170 Ti      1  H101        0.0000
    214 TiA        21.7390   24.9800   46.2170 Ti      1  H101        0.0000
    215 TiA        21.7390   13.9000   46.2170 Ti      1  H101        0.0000
    216 TiA        31.4890   13.6800   28.9570 Ti      1  H101        0.0000
    217 TiA         8.6490   24.7600   28.9570 Ti      1  H101        0.0000
    218 TiA        27.6290    6.4400   28.8570 Ti      1  H101        0.0000
    219 TiA        27.0590   13.7400   28.9970 Ti      1  H101        0.0000
    220 TiA        20.0490   32.1600   28.9870 Ti      1  H101        0.0000
    221 TiA         8.6490   13.6800   28.9570 Ti      1  H101        0.0000
    222 TiA        20.0690    2.6000   28.9570 Ti      1  H101        0.0000
    223 TiA         8.6290   10.0000   28.9870 Ti      1  H101        0.0000
    224 TiA        31.4690   21.0800   28.9870 Ti      1  H101        0.0000
    225 TiA        31.4890   24.7600   28.9570 Ti      1  H101        0.0000
    226 TiA        20.0690   13.6800   28.9570 Ti      1  H101        0.0000
    227 TiA        20.0490   10.0000   28.9870 Ti      1  H101        0.0000
    228 TiA        11.9490   17.5000   28.7970 Ti      1  H101        0.0000
    229 TiA         0.5290    6.4200   28.7970 Ti      1  H101        0.0000
    230 TiA        23.3690   28.5800   28.7970 Ti      1  H101        0.0000
    231 TiA        31.4890    2.6000   28.9570 Ti      1  H101        0.0000
    232 TiA         0.5290   17.5000   28.7970 Ti      1  H101        0.0000
    233 TiA        11.9490    6.4200   28.7970 Ti      1  H101        0.0000
    234 TiA         8.6490    2.6000   28.9570 Ti      1  H101        0.0000
    235 TiA        20.0690   24.7600   28.9570 Ti      1  H101        0.0000
    236 TiA        23.3690    6.4200   28.7970 Ti      1  H101        0.0000
    237 TiA         3.2290   13.6800   46.1770 Ti      1  H101        0.0000
    238 TiA         3.2290   24.7600   46.1770 Ti      1  H101        0.0000
    239 TiA        26.0690    2.6000   46.1770 Ti      1  H101        0.0000
    240 TiA         3.2290    2.6000   46.1770 Ti      1  H101        0.0000
    241 TiA        14.6490   13.6800   46.1770 Ti      1  H101        0.0000
    242 TiA        14.6490   24.7600   46.1770 Ti      1  H101        0.0000
    243 TiA        14.6490    2.6000   46.1770 Ti      1  H101        0.0000
    244 TiA        26.0690   24.7600   46.1770 Ti      1  H101        0.0000
    245 TiA        26.0690   13.6800   46.1770 Ti      1  H101        0.0000
    246 TiA         0.5290   28.5800   28.7970 Ti      1  H101        0.0000
    247 TiA        11.9490   28.5800   28.7970 Ti      1  H101        0.0000
    248 TiA        23.3690   17.5000   28.7970 Ti      1  H101        0.0000
    249 TiA         6.5290   21.2300   46.0870 Ti      1  H101        0.0000
    250 TiA         6.5290   10.1500   46.0870 Ti      1  H101        0.0000
    251 TiA        29.3690   32.3100   46.0870 Ti      1  H101        0.0000
    252 TiA        17.9490   32.3100   46.0870 Ti      1  H101        0.0000
    253 TiA        29.3690   21.2300   46.0870 Ti      1  H101        0.0000
    254 TiA         6.5290   32.3100   46.0870 Ti      1  H101        0.0000
    255 TiA        17.9490   10.1500   46.0870 Ti      1  H101        0.0000
    256 TiA        29.3690   10.1500   46.0870 Ti      1  H101        0.0000
    257 TiA        17.9490   21.2300   46.0870 Ti      1  H101        0.0000
    258 TiA         6.6190   23.0100   33.8170 Ti      1  H101        0.0000
    259 TiA         6.6190   19.3000   33.8170 Ti      1  H101        0.0000
    260 TiA         6.6190   11.9300   33.8170 Ti      1  H101        0.0000
    261 TiA        18.0390    0.8500   33.8170 Ti      1  H101        0.0000
    262 TiA        29.4590   23.0100   33.8170 Ti      1  H101        0.0000
    263 TiA        18.0390   11.9300   33.8170 Ti      1  H101        0.0000
    264 TiA        25.5790   30.3500   33.8170 Ti      1  H101        0.0000
    265 TiA        29.4590    0.8500   33.8170 Ti      1  H101        0.0000
    266 TiA        29.4590   11.9300   33.8170 Ti      1  H101        0.0000
    267 TiA         6.5190   15.6400   33.8770 Ti      1  H101        0.0000
    268 TiA         6.6190    0.8500   33.8170 Ti      1  H101        0.0000
    269 TiA         2.7390   30.3500   33.8170 Ti      1  H101        0.0000
    270 TiA         6.5190   26.7200   33.8770 Ti      1  H101        0.0000
    271 TiA         6.6190    8.2200   33.8170 Ti      1  H101        0.0000
    272 TiA        17.9390    4.5600   33.8770 Ti      1  H101        0.0000
    273 TiA        18.0390   30.3800   33.8170 Ti      1  H101        0.0000
    274 TiA        18.0390    8.2200   33.8170 Ti      1  H101        0.0000
    275 TiA        29.4590   19.3000   33.8170 Ti      1  H101        0.0000
    276 TiA         6.5190    4.5600   33.8770 Ti      1  H101        0.0000
    277 TiA        29.3590   26.7200   33.8770 Ti      1  H101        0.0000
    278 TiA        29.3590   15.6400   33.8770 Ti      1  H101        0.0000
    279 TiA         2.7390    8.1900   33.8170 Ti      1  H101        0.0000
    280 TiA        25.7490    0.8700   33.6770 Ti      1  H101        0.0000
    281 TiA        29.3590    4.5600   33.8770 Ti      1  H101        0.0000
    282 TiA         2.7390   19.2700   33.8170 Ti      1  H101        0.0000
    283 TiA         2.7690    4.6000   33.7370 Ti      1  H101        0.0000
    284 TiA         2.7690   26.7600   33.7370 Ti      1  H101        0.0000
    285 TiA         2.7690   15.6800   33.7370 Ti      1  H101        0.0000
    286 TiA        25.6090   26.7600   33.7370 Ti      1  H101        0.0000
    287 TiA        14.1590   19.2700   33.8170 Ti      1  H101        0.0000
    288 TiA        17.9390   26.7200   33.8770 Ti      1  H101        0.0000
    289 TiA        10.3590   19.2500   33.8870 Ti      1  H101        0.0000
    290 TiA        29.4590   30.3800   33.8170 Ti      1  H101        0.0000
    291 TiA        17.9390   15.6400   33.8770 Ti      1  H101        0.0000
    292 TiA        29.4590    8.2200   33.8170 Ti      1  H101        0.0000
    293 TiA        10.4490   23.0300   33.6570 Ti      1  H101        0.0000
    294 TiA        14.1890   15.6800   33.7370 Ti      1  H101        0.0000
    295 TiA         6.6190   30.3800   33.8170 Ti      1  H101        0.0000
    296 TiA        14.1590    8.1900   33.8170 Ti      1  H101        0.0000
    297 TiA         2.9090    0.8700   33.6770 Ti      1  H101        0.0000
    298 TiA        14.1890   26.7600   33.7370 Ti      1  H101        0.0000
    299 TiA        25.6090    4.6000   33.7370 Ti      1  H101        0.0000
    300 TiA        33.2890   11.9500   33.6570 Ti      1  H101        0.0000
    301 TiA        14.1890    4.6000   33.7370 Ti      1  H101        0.0000
    302 TiA        33.1990    8.1700   33.8870 Ti      1  H101        0.0000
    303 TiA        18.0390   23.0100   33.8170 Ti      1  H101        0.0000
    304 TiA        14.1590   30.3500   33.8170 Ti      1  H101        0.0000
    305 TiA         0.9590   11.9400   41.2070 Ti      1  H101        0.0000
    306 TiA        12.3790   23.0200   41.2070 Ti      1  H101        0.0000
    307 TiA        23.7990    0.8600   41.2070 Ti      1  H101        0.0000
    308 TiA         0.9590   23.0200   41.2070 Ti      1  H101        0.0000
    309 TiA        12.3790   11.9400   41.2070 Ti      1  H101        0.0000
    310 TiA         0.9590    0.8600   41.2070 Ti      1  H101        0.0000
    311 TiA        12.3790    0.8600   41.2070 Ti      1  H101        0.0000
    312 TiA        23.7990   11.9400   41.2070 Ti      1  H101        0.0000
    313 TiA        23.7990   23.0200   41.2070 Ti      1  H101        0.0000
    314 TiA         2.9090   11.9500   33.6770 Ti      1  H101        0.0000
    315 TiA        25.6090   15.6800   33.7370 Ti      1  H101        0.0000
    316 TiA        25.5790   19.2700   33.8170 Ti      1  H101        0.0000
    317 TiA         8.6190   22.9900   41.2570 Ti      1  H101        0.0000
    318 TiA         8.6190   11.9100   41.2570 Ti      1  H101        0.0000
    319 TiA        31.4590   11.9100   41.2570 Ti      1  H101        0.0000
    320 TiA        20.0390    0.8300   41.2570 Ti      1  H101        0.0000
    321 TiA        31.4590   22.9900   41.2570 Ti      1  H101        0.0000
    322 TiA        31.4590    0.8300   41.2570 Ti      1  H101        0.0000
    323 TiA        20.0390   11.9100   41.2570 Ti      1  H101        0.0000
    324 TiA         8.6190    0.8300   41.2570 Ti      1  H101        0.0000
    325 TiA        20.0390   22.9900   41.2570 Ti      1  H101        0.0000
    326 TiA         2.9090   23.0300   33.6770 Ti      1  H101        0.0000
    327 TiA        14.3290   23.0300   33.6770 Ti      1  H101        0.0000
    328 TiA        14.3290   11.9500   33.6770 Ti      1  H101        0.0000
    329 TiA         1.0490   15.5800   41.2470 Ti      1  H101        0.0000
    330 TiA        12.4690   15.5800   41.2470 Ti      1  H101        0.0000
    331 TiA         1.0490    4.5000   41.2470 Ti      1  H101        0.0000
    332 TiA         1.0490   26.6600   41.2470 Ti      1  H101        0.0000
    333 TiA        12.4690   26.6600   41.2470 Ti      1  H101        0.0000
    334 TiA        23.8890    4.5000   41.2470 Ti      1  H101        0.0000
    335 TiA        23.8890   26.6600   41.2470 Ti      1  H101        0.0000
    336 TiA        12.4690    4.5000   41.2470 Ti      1  H101        0.0000
    337 TiA        23.8890   15.5800   41.2470 Ti      1  H101        0.0000
    338 TiA        10.3490   15.6400   33.7370 Ti      1  H101        0.0000
    339 TiA        21.8690    0.8700   33.6570 Ti      1  H101        0.0000
    340 TiA        33.1890   15.6400   33.7370 Ti      1  H101        0.0000
    341 TiA         8.5790   19.3400   41.1270 Ti      1  H101        0.0000
    342 TiA        31.4190    8.2600   41.1270 Ti      1  H101        0.0000
    343 TiA         8.5790    8.2600   41.1270 Ti      1  H101        0.0000
    344 TiA        31.4190   19.3400   41.1270 Ti      1  H101        0.0000
    345 TiA        19.9990   30.4200   41.1270 Ti      1  H101        0.0000
    346 TiA        19.9990    8.2600   41.1270 Ti      1  H101        0.0000
    347 TiA        21.7790   30.3300   33.8870 Ti      1  H101        0.0000
    348 TiA        31.4190   30.4200   41.1270 Ti      1  H101        0.0000
    349 TiA         8.5790   30.4200   41.1270 Ti      1  H101        0.0000
    350 TiA        19.9990   19.3400   41.1270 Ti      1  H101        0.0000
    351 TiA        18.0390   19.3000   33.8170 Ti      1  H101        0.0000
    352 TiA        14.3290    0.8700   33.6770 Ti      1  H101        0.0000
    353 TiA        25.7490   23.0300   33.6770 Ti      1  H101        0.0000
    354 TiA        10.4490   11.9500   33.6570 Ti      1  H101        0.0000
    355 TiA        33.1990   19.2500   33.8870 Ti      1  H101        0.0000
    356 TiA        33.2890   23.0300   33.6570 Ti      1  H101        0.0000
    357 TiA        21.7690    4.5600   33.7370 Ti      1  H101        0.0000
    358 TiA        10.3490   26.7200   33.7370 Ti      1  H101        0.0000
    359 TiA        10.3590    8.1700   33.8870 Ti      1  H101        0.0000
    360 TiA        33.1890    4.5600   33.7370 Ti      1  H101        0.0000
    361 TiA        33.1890   26.7200   33.7370 Ti      1  H101        0.0000
    362 TiA        25.5790    8.1900   33.8170 Ti      1  H101        0.0000
    363 TiA        12.3090   19.2800   41.3070 Ti      1  H101        0.0000
    364 TiA         0.8890    8.2000   41.3070 Ti      1  H101        0.0000
    365 TiA        23.7290   30.3600   41.3070 Ti      1  H101        0.0000
    366 TiA         0.8890   19.2800   41.3070 Ti      1  H101        0.0000
    367 TiA        12.3090    8.2000   41.3070 Ti      1  H101        0.0000
    368 TiA         0.8890   30.3600   41.3070 Ti      1  H101        0.0000
    369 TiA        21.7690   26.7200   33.7370 Ti      1  H101        0.0000
    370 TiA        12.3090   30.3600   41.3070 Ti      1  H101        0.0000
    371 TiA        23.7290    8.2000   41.3070 Ti      1  H101        0.0000
    372 TiA        23.7290   19.2800   41.3070 Ti      1  H101        0.0000
    373 TiA        10.3490    4.5600   33.7370 Ti      1  H101        0.0000
    374 TiA        21.7790    8.1700   33.8870 Ti      1  H101        0.0000
    375 TiA        21.8690   11.9500   33.6570 Ti      1  H101        0.0000
    376 TiA        21.7690   15.6400   33.7370 Ti      1  H101        0.0000
    377 TiA         8.5390   15.6600   41.2070 Ti      1  H101        0.0000
    378 TiA         8.5390   26.7400   41.2070 Ti      1  H101        0.0000
    379 TiA        31.3790   15.6600   41.2070 Ti      1  H101        0.0000
    380 TiA        19.9590    4.5800   41.2070 Ti      1  H101        0.0000
    381 TiA        31.3790    4.5800   41.2070 Ti      1  H101        0.0000
    382 TiA        31.3790   26.7400   41.2070 Ti      1  H101        0.0000
    383 TiA         8.5390    4.5800   41.2070 Ti      1  H101        0.0000
    384 TiA        19.9590   26.7400   41.2070 Ti      1  H101        0.0000
    385 TiA        19.9590   15.6600   41.2070 Ti      1  H101        0.0000
    386 TiA         4.7690   22.9000   41.1970 Ti      1  H101        0.0000
    387 TiA         4.7690   11.8200   41.1970 Ti      1  H101        0.0000
    388 TiA        27.6090    0.7400   41.1970 Ti      1  H101        0.0000
    389 TiA         4.7690    0.7400   41.1970 Ti      1  H101        0.0000
    390 TiA        16.1890   11.8200   41.1970 Ti      1  H101        0.0000
    391 TiA        16.1890    0.7400   41.1970 Ti      1  H101        0.0000
    392 TiA        27.6090   22.9000   41.1970 Ti      1  H101        0.0000
    393 TiA        16.1890   22.9000   41.1970 Ti      1  H101        0.0000
    394 TiA        27.6090   11.8200   41.1970 Ti      1  H101        0.0000
    395 TiA        25.7490   11.9500   33.6770 Ti      1  H101        0.0000
    396 TiA        33.2890    0.8700   33.6570 Ti      1  H101        0.0000
    397 TiA        33.1990   30.3300   33.8870 Ti      1  H101        0.0000
    398 TiA        10.3590   30.3300   33.8870 Ti      1  H101        0.0000
    399 TiA        10.4490    0.8700   33.6570 Ti      1  H101        0.0000
    400 TiA        21.8690   23.0300   33.6570 Ti      1  H101        0.0000
    401 TiA        21.7790   19.2500   33.8870 Ti      1  H101        0.0000
    402 TiA         4.8190   19.2900   41.2470 Ti      1  H101        0.0000
    403 TiA         4.8390   15.5400   41.1670 Ti      1  H101        0.0000
    404 TiA         4.8390   26.6200   41.1670 Ti      1  H101        0.0000
    405 TiA         4.8190    8.2100   41.2470 Ti      1  H101        0.0000
    406 TiA        27.6590   30.3700   41.2470 Ti      1  H101        0.0000
    407 TiA         4.8390    4.4600   41.1670 Ti      1  H101        0.0000
    408 TiA         4.8190   30.3700   41.2470 Ti      1  H101        0.0000
    409 TiA        27.6790   26.6200   41.1670 Ti      1  H101        0.0000
    410 TiA        16.2390    8.2100   41.2470 Ti      1  H101        0.0000
    411 TiA        16.2590    4.4600   41.1670 Ti      1  H101        0.0000
    412 TiA        27.6790    4.4600   41.1670 Ti      1  H101        0.0000
    413 TiA        16.2590   15.5400   41.1670 Ti      1  H101        0.0000
    414 TiA        16.2390   30.3700   41.2470 Ti      1  H101        0.0000
    415 TiA        16.2590   26.6200   41.1670 Ti      1  H101        0.0000
    416 TiA        27.6590   19.2900   41.2470 Ti      1  H101        0.0000
    417 TiA        27.6790   15.5400   41.1670 Ti      1  H101        0.0000
    418 TiA        16.2390   19.2900   41.2470 Ti      1  H101        0.0000
    419 TiA        27.6590    8.2100   41.2470 Ti      1  H101        0.0000
    420 TiA         6.5890   21.2400   36.3370 Ti      1  H101        0.0000
    421 TiA         6.6990   24.8800   36.3770 Ti      1  H101        0.0000
    422 TiA         6.5690   17.5700   36.3470 Ti      1  H101        0.0000
    423 TiA         6.6990   13.8000   36.3770 Ti      1  H101        0.0000
    424 TiA         6.5890   10.1600   36.3370 Ti      1  H101        0.0000
    425 TiA        18.1190    2.7200   36.3770 Ti      1  H101        0.0000
    426 TiA        18.0090   32.3200   36.3370 Ti      1  H101        0.0000
    427 TiA        25.5090   32.3300   36.2670 Ti      1  H101        0.0000
    428 TiA        29.4290   21.2400   36.3370 Ti      1  H101        0.0000
    429 TiA        18.0090   10.1600   36.3370 Ti      1  H101        0.0000
    430 TiA        29.5390   24.8800   36.3770 Ti      1  H101        0.0000
    431 TiA        29.5390   13.8000   36.3770 Ti      1  H101        0.0000
    432 TiA        29.5390    2.7200   36.3770 Ti      1  H101        0.0000
    433 TiA        25.6090   28.5900   36.2970 Ti      1  H101        0.0000
    434 TiA         6.6990    2.7200   36.3770 Ti      1  H101        0.0000
    435 TiA        18.1190   13.8000   36.3770 Ti      1  H101        0.0000
    436 TiA        29.4290   32.3200   36.3370 Ti      1  H101        0.0000
    437 TiA        10.2890   21.1800   36.2370 Ti      1  H101        0.0000
    438 TiA        29.4290   10.1600   36.3370 Ti      1  H101        0.0000
    439 TiA         6.5690    6.4900   36.3470 Ti      1  H101        0.0000
    440 TiA         6.5890   32.3200   36.3370 Ti      1  H101        0.0000
    441 TiA        17.9890    6.4900   36.3470 Ti      1  H101        0.0000
    442 TiA         2.7690   28.5900   36.2970 Ti      1  H101        0.0000
    443 TiA         2.6690   32.3300   36.2670 Ti      1  H101        0.0000
    444 TiA        29.4090   17.5700   36.3470 Ti      1  H101        0.0000
    445 TiA         6.5690   28.6500   36.3470 Ti      1  H101        0.0000
    446 TiA         2.7690    6.4300   36.2970 Ti      1  H101        0.0000
    447 TiA         2.7690   17.5100   36.2970 Ti      1  H101        0.0000
    448 TiA        25.6990    2.7200   36.3270 Ti      1  H101        0.0000
    449 TiA        33.1290   10.1000   36.2370 Ti      1  H101        0.0000
    450 TiA        29.4090   28.6500   36.3470 Ti      1  H101        0.0000
    451 TiA         2.8590    2.7200   36.3270 Ti      1  H101        0.0000
    452 TiA         2.6690   10.1700   36.2670 Ti      1  H101        0.0000
    453 TiA        17.9890   28.6500   36.3470 Ti      1  H101        0.0000
    454 TiA        29.4090    6.4900   36.3470 Ti      1  H101        0.0000
    455 TiA         2.8590   13.8000   36.3270 Ti      1  H101        0.0000
    456 TiA         2.6690   21.2500   36.2670 Ti      1  H101        0.0000
    457 TiA         2.8590   24.8800   36.3270 Ti      1  H101        0.0000
    458 TiA        14.1890   17.5100   36.2970 Ti      1  H101        0.0000
    459 TiA        10.3290   17.4600   36.2470 Ti      1  H101        0.0000
    460 TiA        14.1890    6.4300   36.2970 Ti      1  H101        0.0000
    461 TiA         8.4890   21.2000   38.7370 Ti      1  H101        0.0000
    462 TiA        33.3090   13.7600   36.2970 Ti      1  H101        0.0000
    463 TiA        14.0890   21.2500   36.2670 Ti      1  H101        0.0000
    464 TiA        14.2790   13.8000   36.3270 Ti      1  H101        0.0000
    465 TiA        18.1190   24.8800   36.3770 Ti      1  H101        0.0000
    466 TiA        10.4690   24.8400   36.2970 Ti      1  H101        0.0000
    467 TiA        14.2790   24.8800   36.3270 Ti      1  H101        0.0000
    468 TiA        14.0890   10.1700   36.2670 Ti      1  H101        0.0000
    469 TiA        14.1890   28.5900   36.2970 Ti      1  H101        0.0000
    470 TiA         0.8990   13.8200   38.7170 Ti      1  H101        0.0000
    471 TiA        12.3190   24.9000   38.7170 Ti      1  H101        0.0000
    472 TiA        23.7390    2.7400   38.7170 Ti      1  H101        0.0000
    473 TiA        31.3290   10.1200   38.7370 Ti      1  H101        0.0000
    474 TiA        25.6990   24.8800   36.3270 Ti      1  H101        0.0000
    475 TiA        12.3190   13.8200   38.7170 Ti      1  H101        0.0000
    476 TiA         0.8990   24.9000   38.7170 Ti      1  H101        0.0000
    477 TiA        33.1690    6.3800   36.2470 Ti      1  H101        0.0000
    478 TiA        19.9090   32.2800   38.7370 Ti      1  H101        0.0000
    479 TiA         8.4890   10.1200   38.7370 Ti      1  H101        0.0000
    480 TiA         0.8990    2.7400   38.7170 Ti      1  H101        0.0000
    481 TiA        31.3290   21.2000   38.7370 Ti      1  H101        0.0000
    482 TiA        14.2790    2.7200   36.3270 Ti      1  H101        0.0000
    483 TiA        21.7090   32.2600   36.2370 Ti      1  H101        0.0000
    484 TiA         0.7690   10.0700   38.7370 Ti      1  H101        0.0000
    485 TiA        19.9090   10.1200   38.7370 Ti      1  H101        0.0000
    486 TiA        12.1890   21.1500   38.7370 Ti      1  H101        0.0000
    487 TiA        25.6090   17.5100   36.2970 Ti      1  H101        0.0000
    488 TiA        10.4690   13.7600   36.2970 Ti      1  H101        0.0000
    489 TiA         8.5490   24.8700   38.8070 Ti      1  H101        0.0000
    490 TiA        23.6090   32.2300   38.7370 Ti      1  H101        0.0000
    491 TiA        17.9890   17.5700   36.3470 Ti      1  H101        0.0000
    492 TiA        12.3190    2.7400   38.7170 Ti      1  H101        0.0000
    493 TiA        23.7390   24.9000   38.7170 Ti      1  H101        0.0000
    494 TiA        31.3290   32.2800   38.7370 Ti      1  H101        0.0000
    495 TiA        21.8890    2.6800   36.2970 Ti      1  H101        0.0000
    496 TiA        23.7390   13.8200   38.7170 Ti      1  H101        0.0000
    497 TiA         8.5490   13.7900   38.8070 Ti      1  H101        0.0000
    498 TiA         0.7690   21.1500   38.7370 Ti      1  H101        0.0000
    499 TiA        14.0890   32.3300   36.2670 Ti      1  H101        0.0000
    500 TiA        31.3890   13.7900   38.8070 Ti      1  H101        0.0000
    501 TiA         8.4890   32.2800   38.7370 Ti      1  H101        0.0000
    502 TiA        33.1690   17.4600   36.2470 Ti      1  H101        0.0000
    503 TiA        12.1890   10.0700   38.7370 Ti      1  H101        0.0000
    504 TiA        18.0090   21.2400   36.3370 Ti      1  H101        0.0000
    505 TiA        19.9690    2.7100   38.8070 Ti      1  H101        0.0000
    506 TiA        25.5090   21.2500   36.2670 Ti      1  H101        0.0000
    507 TiA        33.1290   21.1800   36.2370 Ti      1  H101        0.0000
    508 TiA        25.6090    6.4300   36.2970 Ti      1  H101        0.0000
    509 TiA        10.2890   10.1000   36.2370 Ti      1  H101        0.0000
    510 TiA        31.3890   24.8700   38.8070 Ti      1  H101        0.0000
    511 TiA        12.2190   17.5400   38.6370 Ti      1  H101        0.0000
    512 TiA         0.7690   32.2300   38.7370 Ti      1  H101        0.0000
    513 TiA         0.7990    6.4600   38.6370 Ti      1  H101        0.0000
    514 TiA         8.3690   17.4700   38.6670 Ti      1  H101        0.0000
    515 TiA         0.7990   17.5400   38.6370 Ti      1  H101        0.0000
    516 TiA        31.3890    2.7100   38.8070 Ti      1  H101        0.0000
    517 TiA        23.6390   28.6200   38.6370 Ti      1  H101        0.0000
    518 TiA        19.9090   21.2000   38.7370 Ti      1  H101        0.0000
    519 TiA        19.9690   13.7900   38.8070 Ti      1  H101        0.0000
    520 TiA         8.5490    2.7100   38.8070 Ti      1  H101        0.0000
    521 TiA        33.3090   24.8400   36.2970 Ti      1  H101        0.0000
    522 TiA         0.7990   28.6200   38.6370 Ti      1  H101        0.0000
    523 TiA        12.2190    6.4600   38.6370 Ti      1  H101        0.0000
    524 TiA        21.7490   28.5400   36.2470 Ti      1  H101        0.0000
    525 TiA        12.1890   32.2300   38.7370 Ti      1  H101        0.0000
    526 TiA        23.6090   10.0700   38.7370 Ti      1  H101        0.0000
    527 TiA        19.9690   24.8700   38.8070 Ti      1  H101        0.0000
    528 TiA        31.2090    6.3900   38.6670 Ti      1  H101        0.0000
    529 TiA        23.6090   21.1500   38.7370 Ti      1  H101        0.0000
    530 TiA        31.2090   17.4700   38.6670 Ti      1  H101        0.0000
    531 TiA        23.6390    6.4600   38.6370 Ti      1  H101        0.0000
    532 TiA        12.2190   28.6200   38.6370 Ti      1  H101        0.0000
    533 TiA         8.3690    6.3900   38.6670 Ti      1  H101        0.0000
    534 TiA        19.7890    6.3900   38.6670 Ti      1  H101        0.0000
    535 TiA        19.7890   28.5500   38.6670 Ti      1  H101        0.0000
    536 TiA        10.3290    6.3800   36.2470 Ti      1  H101        0.0000
    537 TiA        21.7490    6.3800   36.2470 Ti      1  H101        0.0000
    538 TiA         8.3690   28.5500   38.6670 Ti      1  H101        0.0000
    539 TiA        31.2090   28.5500   38.6670 Ti      1  H101        0.0000
    540 TiA        23.6390   17.5400   38.6370 Ti      1  H101        0.0000
    541 TiA        25.6990   13.8000   36.3270 Ti      1  H101        0.0000
    542 TiA        21.7090   10.1000   36.2370 Ti      1  H101        0.0000
    543 TiA        19.7890   17.4700   38.6670 Ti      1  H101        0.0000
    544 TiA        33.3090    2.6800   36.2970 Ti      1  H101        0.0000
    545 TiA        21.8890   13.7600   36.2970 Ti      1  H101        0.0000
    546 TiA        33.1690   28.5400   36.2470 Ti      1  H101        0.0000
    547 TiA        10.3290   28.5400   36.2470 Ti      1  H101        0.0000
    548 TiA        25.5090   10.1700   36.2670 Ti      1  H101        0.0000
    549 TiA         4.5390   21.1000   38.6170 Ti      1  H101        0.0000
    550 TiA        10.4690    2.6800   36.2970 Ti      1  H101        0.0000
    551 TiA         4.6990   24.8100   38.7170 Ti      1  H101        0.0000
    552 TiA        21.8890   24.8400   36.2970 Ti      1  H101        0.0000
    553 TiA         4.6990   13.7300   38.7170 Ti      1  H101        0.0000
    554 TiA         4.5390   10.0200   38.6170 Ti      1  H101        0.0000
    555 TiA        27.3790   32.1800   38.6170 Ti      1  H101        0.0000
    556 TiA        33.1290   32.2600   36.2370 Ti      1  H101        0.0000
    557 TiA        27.5390    2.6500   38.7170 Ti      1  H101        0.0000
    558 TiA         4.6990    2.6500   38.7170 Ti      1  H101        0.0000
    559 TiA         4.5390   32.1800   38.6170 Ti      1  H101        0.0000
    560 TiA        15.9590   10.0200   38.6170 Ti      1  H101        0.0000
    561 TiA        16.1190   13.7300   38.7170 Ti      1  H101        0.0000
    562 TiA        27.5390   24.8100   38.7170 Ti      1  H101        0.0000
    563 TiA        16.1190    2.6500   38.7170 Ti      1  H101        0.0000
    564 TiA        15.9590   32.1800   38.6170 Ti      1  H101        0.0000
    565 TiA        27.3790   21.1000   38.6170 Ti      1  H101        0.0000
    566 TiA        21.7490   17.4600   36.2470 Ti      1  H101        0.0000
    567 TiA        16.1190   24.8100   38.7170 Ti      1  H101        0.0000
    568 TiA        27.5390   13.7300   38.7170 Ti      1  H101        0.0000
    569 TiA        15.9590   21.1000   38.6170 Ti      1  H101        0.0000
    570 TiA        27.3790   10.0200   38.6170 Ti      1  H101        0.0000
    571 TiA         4.5490   17.4500   38.6670 Ti      1  H101        0.0000
    572 TiA        10.2890   32.2600   36.2370 Ti      1  H101        0.0000
    573 TiA         4.5490    6.3700   38.6670 Ti      1  H101        0.0000
    574 TiA        27.3890   28.5300   38.6670 Ti      1  H101        0.0000
    575 TiA         4.5490   28.5300   38.6670 Ti      1  H101        0.0000
    576 TiA        15.9690    6.3700   38.6670 Ti      1  H101        0.0000
    577 TiA        15.9690   28.5300   38.6670 Ti      1  H101        0.0000
    578 TiA        27.3890   17.4500   38.6670 Ti      1  H101        0.0000
    579 TiA        15.9690   17.4500   38.6670 Ti      1  H101        0.0000
    580 TiA        27.3890    6.3700   38.6670 Ti      1  H101        0.0000
    581 TiA        21.7090   21.1800   36.2370 Ti      1  H101        0.0000
    582 TiA         8.3790   17.2600   28.8770 Ti      1  H101        0.0000
    583 TiA        31.2190    6.1800   28.8770 Ti      1  H101        0.0000
    584 TiA        31.2190   17.2600   28.8770 Ti      1  H101        0.0000
    585 TiA         0.7090   10.1600   28.9270 Ti      1  H101        0.0000
    586 TiA        12.1290   21.2400   28.9270 Ti      1  H101        0.0000
    587 TiA        19.7990    6.1800   28.8770 Ti      1  H101        0.0000
    588 TiA        23.5490   32.3200   28.9270 Ti      1  H101        0.0000
    589 TiA        19.7990   28.3400   28.8770 Ti      1  H101        0.0000
    590 TiA         8.3790    6.1800   28.8770 Ti      1  H101        0.0000
    591 TiA         3.0790   17.3200   46.0770 Ti      1  H101        0.0000
    592 TiA         3.0790    6.2400   46.0770 Ti      1  H101        0.0000
    593 TiA         3.0790   28.4000   46.0770 Ti      1  H101        0.0000
    594 TiA        25.9190   28.4000   46.0770 Ti      1  H101        0.0000
    595 TiA        14.4990   17.3200   46.0770 Ti      1  H101        0.0000
    596 TiA        14.4990    6.2400   46.0770 Ti      1  H101        0.0000
    597 TiA        25.9190    6.2400   46.0770 Ti      1  H101        0.0000
    598 TiA        14.4990   28.4000   46.0770 Ti      1  H101        0.0000
    599 TiA        25.9190   17.3200   46.0770 Ti      1  H101        0.0000
    600 TiA         0.7790   13.9200   28.6870 Ti      1  H101        0.0000
    601 TiA        23.6190    2.8400   28.6870 Ti      1  H101        0.0000
    602 TiA        12.1990   25.0000   28.6870 Ti      1  H101        0.0000
    603 TiA         8.3790   28.3400   28.8770 Ti      1  H101        0.0000
    604 TiA        31.2190   28.3400   28.8770 Ti      1  H101        0.0000
    605 TiA        12.1990   13.9200   28.6870 Ti      1  H101        0.0000
    606 TiA         0.7090   21.2400   28.9270 Ti      1  H101        0.0000
    607 TiA        12.1290   10.1600   28.9270 Ti      1  H101        0.0000
    608 TiA         0.7790   25.0000   28.6870 Ti      1  H101        0.0000
    609 TiA         0.7790    2.8400   28.6870 Ti      1  H101        0.0000
    610 TiA        19.7990   17.2600   28.8770 Ti      1  H101        0.0000
    611 TiA         3.0390   21.1100   46.1770 Ti      1  H101        0.0000
    612 TiA         3.0390   10.0300   46.1770 Ti      1  H101        0.0000
    613 TiA        25.8790   32.1900   46.1770 Ti      1  H101        0.0000
    614 TiA        14.4590   10.0300   46.1770 Ti      1  H101        0.0000
    615 TiA        14.4590   21.1100   46.1770 Ti      1  H101        0.0000
    616 TiA         3.0390   32.1900   46.1770 Ti      1  H101        0.0000
    617 TiA        14.4590   32.1900   46.1770 Ti      1  H101        0.0000
    618 TiA        25.8790   10.0300   46.1770 Ti      1  H101        0.0000
    619 TiA        25.8790   21.1100   46.1770 Ti      1  H101        0.0000
    620 TiA        23.6190   25.0000   28.6870 Ti      1  H101        0.0000
    621 TiA        12.1990    2.8400   28.6870 Ti      1  H101        0.0000
    622 TiA        23.6190   13.9200   28.6870 Ti      1  H101        0.0000
    623 TiA         0.7090   32.3200   28.9270 Ti      1  H101        0.0000
    624 TiA         6.7890   13.8600   46.0170 Ti      1  H101        0.0000
    625 TiA         6.7890   24.9400   46.0170 Ti      1  H101        0.0000
    626 TiA        29.6290    2.7800   46.0170 Ti      1  H101        0.0000
    627 TiA        18.2090    2.7800   46.0170 Ti      1  H101        0.0000
    628 TiA        29.6290   24.9400   46.0170 Ti      1  H101        0.0000
    629 TiA         6.7890    2.7800   46.0170 Ti      1  H101        0.0000
    630 TiA        29.6290   13.8600   46.0170 Ti      1  H101        0.0000
    631 TiA        18.2090   13.8600   46.0170 Ti      1  H101        0.0000
    632 TiA        18.2090   24.9400   46.0170 Ti      1  H101        0.0000
    633 TiA        23.5490   10.1600   28.9270 Ti      1  H101        0.0000
    634 TiA        12.1290   32.3200   28.9270 Ti      1  H101        0.0000
    635 TiA        23.5490   21.2400   28.9270 Ti      1  H101        0.0000
    636 TiA         6.8490   17.6200   46.2570 Ti      1  H101        0.0000
    637 TiA         6.8490    6.5400   46.2570 Ti      1  H101        0.0000
    638 TiA         6.8490   28.7000   46.2570 Ti      1  H101        0.0000
    639 TiA        29.6890   28.7000   46.2570 Ti      1  H101        0.0000
    640 TiA        29.6890    6.5400   46.2570 Ti      1  H101        0.0000
    641 TiA        18.2690    6.5400   46.2570 Ti      1  H101        0.0000
    642 TiA        29.6890   17.6200   46.2570 Ti      1  H101        0.0000
    643 TiA        18.2690   28.7000   46.2570 Ti      1  H101        0.0000
    644 TiA        18.2690   17.6200   46.2570 Ti      1  H101        0.0000
    645 TiA        27.1090   10.0500   28.7570 Ti      1  H101        0.0000
    646 TiA        31.4690   32.1600   28.9870 Ti      1  H101        0.0000
    647 TiA         8.6290   32.1600   28.9870 Ti      1  H101        0.0000
    648 TiA        20.0490   21.0800   28.9870 Ti      1  H101        0.0000
    649 OD          1.0390   17.7700   46.5070 O.3     1  H101        0.0000
    650 OD         12.4590   17.7700   46.5070 O.3     1  H101        0.0000
    651 OD          1.0390    6.6900   46.5070 O.3     1  H101        0.0000
    652 OD          1.0390   28.8500   46.5070 O.3     1  H101        0.0000
    653 OD         23.8790   28.8500   46.5070 O.3     1  H101        0.0000
    654 OD         12.4590    6.6900   46.5070 O.3     1  H101        0.0000
    655 OD         12.4590   28.8500   46.5070 O.3     1  H101        0.0000
    656 OD         23.8790    6.6900   46.5070 O.3     1  H101        0.0000
    657 OD         23.8790   17.7700   46.5070 O.3     1  H101        0.0000
    658 OA         26.9390   30.2700   29.3570 O.3     1  H101        0.0000
    659 OA         27.6990    0.8400   29.3570 O.3     1  H101        0.0000
    660 OA          4.0990   30.2700   29.3570 O.3     1  H101        0.0000
    661 OA          4.8590    0.8400   29.3570 O.3     1  H101        0.0000
    662 OA          8.4390   22.9300   29.3670 O.3     1  H101        0.0000
    663 OA         31.2790   11.8500   29.3670 O.3     1  H101        0.0000
    664 OA          4.2290    4.6000   29.4370 O.3     1  H101        0.0000
    665 OA          4.2290   26.7600   29.4370 O.3     1  H101        0.0000
    666 OA         27.0690   26.7600   29.4370 O.3     1  H101        0.0000
    667 OA          4.0990   19.1900   29.3570 O.3     1  H101        0.0000
    668 OA          4.0990    8.1100   29.3570 O.3     1  H101        0.0000
    669 OA          4.2290   15.6800   29.4370 O.3     1  H101        0.0000
    670 OA          4.8590   23.0000   29.3570 O.3     1  H101        0.0000
    671 OA          4.8590   11.9200   29.3570 O.3     1  H101        0.0000
    672 OA         15.5190    8.1100   29.3570 O.3     1  H101        0.0000
    673 OA         15.6490   26.7600   29.4370 O.3     1  H101        0.0000
    674 OA         15.6490    4.6000   29.4370 O.3     1  H101        0.0000
    675 OA         16.2790   23.0000   29.3570 O.3     1  H101        0.0000
    676 OA         16.2790   11.9200   29.3570 O.3     1  H101        0.0000
    677 OA         15.5190   19.1900   29.3570 O.3     1  H101        0.0000
    678 OA         15.6490   15.6800   29.4370 O.3     1  H101        0.0000
    679 OA         15.5190   30.2700   29.3570 O.3     1  H101        0.0000
    680 OA         27.0690    4.6000   29.4370 O.3     1  H101        0.0000
    681 OA         27.6990   23.0000   29.3570 O.3     1  H101        0.0000
    682 OA         26.9390   19.1900   29.3570 O.3     1  H101        0.0000
    683 OA         16.2790    0.8400   29.3570 O.3     1  H101        0.0000
    684 OA         10.6490   23.0700   45.8070 O.3     1  H101        0.0000
    685 OA         33.4890   11.9900   45.8070 O.3     1  H101        0.0000
    686 OA         10.6490   11.9900   45.8070 O.3     1  H101        0.0000
    687 OA         22.0690    0.9100   45.8070 O.3     1  H101        0.0000
    688 OA         33.4890   23.0700   45.8070 O.3     1  H101        0.0000
    689 OA         33.4890    0.9100   45.8070 O.3     1  H101        0.0000
    690 OA         10.6490    0.9100   45.8070 O.3     1  H101        0.0000
    691 OA         22.0690   11.9900   45.8070 O.3     1  H101        0.0000
    692 OA         22.0690   23.0700   45.8070 O.3     1  H101        0.0000
    693 OA         27.0690   15.6800   29.4370 O.3     1  H101        0.0000
    694 OA         19.8590    0.7700   29.3670 O.3     1  H101        0.0000
    695 OA          8.4390   11.8500   29.3670 O.3     1  H101        0.0000
    696 OA         31.2790   22.9300   29.3670 O.3     1  H101        0.0000
    697 OA         19.8590   11.8500   29.3670 O.3     1  H101        0.0000
    698 OA         10.2790   19.4400   45.7670 O.3     1  H101        0.0000
    699 OA         33.1190    8.3600   45.7670 O.3     1  H101        0.0000
    700 OA         33.1190   19.4400   45.7670 O.3     1  H101        0.0000
    701 OA         21.6990   30.5200   45.7670 O.3     1  H101        0.0000
    702 OA         10.2790    8.3600   45.7670 O.3     1  H101        0.0000
    703 OA         33.1190   30.5200   45.7670 O.3     1  H101        0.0000
    704 OA         21.6990    8.3600   45.7670 O.3     1  H101        0.0000
    705 OA         10.2790   30.5200   45.7670 O.3     1  H101        0.0000
    706 OA         21.6990   19.4400   45.7670 O.3     1  H101        0.0000
    707 OA         10.9290   15.6500   45.9370 O.3     1  H101        0.0000
    708 OA         33.7690   15.6500   45.9370 O.3     1  H101        0.0000
    709 OA         10.9290   26.7300   45.9370 O.3     1  H101        0.0000
    710 OA         33.7690    4.5700   45.9370 O.3     1  H101        0.0000
    711 OA         33.7690   26.7300   45.9370 O.3     1  H101        0.0000
    712 OA         22.3490    4.5700   45.9370 O.3     1  H101        0.0000
    713 OA         10.9290    4.5700   45.9370 O.3     1  H101        0.0000
    714 OA         22.3490   26.7300   45.9370 O.3     1  H101        0.0000
    715 OA         22.3490   15.6500   45.9370 O.3     1  H101        0.0000
    716 OA          8.4090   19.2600   29.3870 O.3     1  H101        0.0000
    717 OA         31.2490    8.1800   29.3870 O.3     1  H101        0.0000
    718 OA          8.0490   15.4300   29.2670 O.3     1  H101        0.0000
    719 OA         30.8890   15.4300   29.2670 O.3     1  H101        0.0000
    720 OA         26.9390    8.1100   29.3570 O.3     1  H101        0.0000
    721 OA         27.6990   11.9200   29.3570 O.3     1  H101        0.0000
    722 OA         31.2490   19.2600   29.3870 O.3     1  H101        0.0000
    723 OA         19.8290   30.3400   29.3870 O.3     1  H101        0.0000
    724 OA         19.4690    4.3500   29.2670 O.3     1  H101        0.0000
    725 OA          8.4090    8.1800   29.3870 O.3     1  H101        0.0000
    726 OA          8.0490   26.5100   29.2670 O.3     1  H101        0.0000
    727 OA         19.8290    8.1800   29.3870 O.3     1  H101        0.0000
    728 OA         30.8890    4.3500   29.2670 O.3     1  H101        0.0000
    729 OA         12.3390   19.3400   29.3170 O.3     1  H101        0.0000
    730 OA          0.9190    8.2600   29.3170 O.3     1  H101        0.0000
    731 OA         23.7590   30.4200   29.3170 O.3     1  H101        0.0000
    732 OA         30.8890   26.5100   29.2670 O.3     1  H101        0.0000
    733 OA          8.0490    4.3500   29.2670 O.3     1  H101        0.0000
    734 OA         19.4690   26.5100   29.2670 O.3     1  H101        0.0000
    735 OA         19.4690   15.4300   29.2670 O.3     1  H101        0.0000
    736 OA          2.6990   15.5100   45.6470 O.3     1  H101        0.0000
    737 OA          2.6990   26.5900   45.6470 O.3     1  H101        0.0000
    738 OA          2.6990    4.4300   45.6470 O.3     1  H101        0.0000
    739 OA         14.1190   15.5100   45.6470 O.3     1  H101        0.0000
    740 OA         25.5390    4.4300   45.6470 O.3     1  H101        0.0000
    741 OA         25.5390   26.5900   45.6470 O.3     1  H101        0.0000
    742 OA         14.1190    4.4300   45.6470 O.3     1  H101        0.0000
    743 OA         14.1190   26.5900   45.6470 O.3     1  H101        0.0000
    744 OA         25.5390   15.5100   45.6470 O.3     1  H101        0.0000
    745 OA          1.0990   15.7600   29.2570 O.3     1  H101        0.0000
    746 OA         12.5190   15.7600   29.2570 O.3     1  H101        0.0000
    747 OA         31.2790    0.7700   29.3670 O.3     1  H101        0.0000
    748 OA          1.0990    4.6800   29.2570 O.3     1  H101        0.0000
    749 OA          0.9190   19.3400   29.3170 O.3     1  H101        0.0000
    750 OA         23.9390    4.6800   29.2570 O.3     1  H101        0.0000
    751 OA         12.3390    8.2600   29.3170 O.3     1  H101        0.0000
    752 OA          8.4390    0.7700   29.3670 O.3     1  H101        0.0000
    753 OA         12.5190   26.8400   29.2570 O.3     1  H101        0.0000
    754 OA          1.0990   26.8400   29.2570 O.3     1  H101        0.0000
    755 OA         27.7190   32.1300   30.6670 O.3     1  H101        0.0000
    756 OA         23.9390   26.8400   29.2570 O.3     1  H101        0.0000
    757 OA         19.8590   22.9300   29.3670 O.3     1  H101        0.0000
    758 OA         12.5190    4.6800   29.2570 O.3     1  H101        0.0000
    759 OA          4.8790   32.1300   30.6670 O.3     1  H101        0.0000
    760 OA          2.8490   11.8900   45.6270 O.3     1  H101        0.0000
    761 OA          2.8490   22.9700   45.6270 O.3     1  H101        0.0000
    762 OA         25.6890    0.8100   45.6270 O.3     1  H101        0.0000
    763 OA         14.2690   11.8900   45.6270 O.3     1  H101        0.0000
    764 OA          2.8490    0.8100   45.6270 O.3     1  H101        0.0000
    765 OA         14.2690   22.9700   45.6270 O.3     1  H101        0.0000
    766 OA         14.2690    0.8100   45.6270 O.3     1  H101        0.0000
    767 OA         25.6890   22.9700   45.6270 O.3     1  H101        0.0000
    768 OA         25.6890   11.8900   45.6270 O.3     1  H101        0.0000
    769 OA          0.9190   30.4200   29.3170 O.3     1  H101        0.0000
    770 OA         23.9390   15.7600   29.2570 O.3     1  H101        0.0000
    771 OA          6.8590   22.9700   45.6570 O.3     1  H101        0.0000
    772 OA          6.8590   11.8900   45.6570 O.3     1  H101        0.0000
    773 OA         29.6990    0.8100   45.6570 O.3     1  H101        0.0000
    774 OA         18.2790    0.8100   45.6570 O.3     1  H101        0.0000
    775 OA         29.6990   22.9700   45.6570 O.3     1  H101        0.0000
    776 OA         29.6990   11.8900   45.6570 O.3     1  H101        0.0000
    777 OA          6.8590    0.8100   45.6570 O.3     1  H101        0.0000
    778 OA         18.2790   11.8900   45.6570 O.3     1  H101        0.0000
    779 OA         18.2790   22.9700   45.6570 O.3     1  H101        0.0000
    780 OA         23.7590    8.2600   29.3170 O.3     1  H101        0.0000
    781 OA         12.3390   30.4200   29.3170 O.3     1  H101        0.0000
    782 OA         23.7590   19.3400   29.3170 O.3     1  H101        0.0000
    783 OA          7.0190   19.3600   45.7070 O.3     1  H101        0.0000
    784 OA          7.0190    8.2800   45.7070 O.3     1  H101        0.0000
    785 OA         29.8590   30.4400   45.7070 O.3     1  H101        0.0000
    786 OA          7.0190   30.4400   45.7070 O.3     1  H101        0.0000
    787 OA         18.4390    8.2800   45.7070 O.3     1  H101        0.0000
    788 OA         29.8590    8.2800   45.7070 O.3     1  H101        0.0000
    789 OA         29.8590   19.3600   45.7070 O.3     1  H101        0.0000
    790 OA         18.4390   30.4400   45.7070 O.3     1  H101        0.0000
    791 OA         18.4390   19.3600   45.7070 O.3     1  H101        0.0000
    792 OA          8.3490   21.1200   30.9770 O.3     1  H101        0.0000
    793 OA         31.1890   10.0400   30.9770 O.3     1  H101        0.0000
    794 OE         27.0490   33.0500   26.9070 O.3     1  H101        0.0000
    795 OE         27.7990   31.3200   27.0770 O.3     1  H101        0.0000
    796 OE          4.1490   32.9800   26.8770 O.3     1  H101        0.0000
    797 OE          5.1690   31.3700   27.1570 O.3     1  H101        0.0000
    798 OE          8.7590   20.8000   26.9670 O.3     1  H101        0.0000
    799 OE          7.0190   20.6700   27.8570 O.3     1  H101        0.0000
    800 OE         31.5690    9.7000   26.9770 O.3     1  H101        0.0000
    801 OE         29.8190    9.6300   27.8970 O.3     1  H101        0.0000
    802 OA         27.8390   28.6200   30.9670 O.3     1  H101        0.0000
    803 OA          4.9990   28.6200   30.9670 O.3     1  H101        0.0000
    804 OA          4.6890    2.6800   30.9870 O.3     1  H101        0.0000
    805 OA         27.5290    2.6800   30.9870 O.3     1  H101        0.0000
    806 OA          0.6190   12.0500   29.2870 O.3     1  H101        0.0000
    807 OA         12.0390   23.1300   29.2870 O.3     1  H101        0.0000
    808 OA         23.4590    0.9700   29.2870 O.3     1  H101        0.0000
    809 OA          4.9990   17.5400   30.9670 O.3     1  H101        0.0000
    810 OA          4.9990    6.4600   30.9670 O.3     1  H101        0.0000
    811 OA          4.6890   24.8400   30.9870 O.3     1  H101        0.0000
    812 OA          4.8790   21.0500   30.6670 O.3     1  H101        0.0000
    813 OA          4.8790    9.9700   30.6670 O.3     1  H101        0.0000
    814 OA          4.6890   13.7600   30.9870 O.3     1  H101        0.0000
    815 OA         27.5290   24.8400   30.9870 O.3     1  H101        0.0000
    816 OA         16.4190    6.4600   30.9670 O.3     1  H101        0.0000
    817 OA         16.4190   28.6200   30.9670 O.3     1  H101        0.0000
    818 OA         16.2990    9.9700   30.6670 O.3     1  H101        0.0000
    819 OA         16.1090   13.7600   30.9870 O.3     1  H101        0.0000
    820 OA         16.1090    2.6800   30.9870 O.3     1  H101        0.0000
    821 OA         16.1090   24.8400   30.9870 O.3     1  H101        0.0000
    822 OA         16.2990   21.0500   30.6670 O.3     1  H101        0.0000
    823 OA         16.4190   17.5400   30.9670 O.3     1  H101        0.0000
    824 OA         16.2990   32.1300   30.6670 O.3     1  H101        0.0000
    825 OA         27.7190   21.0500   30.6670 O.3     1  H101        0.0000
    826 OA         27.8390   17.5400   30.9670 O.3     1  H101        0.0000
    827 OA          2.9890   19.3400   45.6670 O.3     1  H101        0.0000
    828 OA          2.9890    8.2600   45.6670 O.3     1  H101        0.0000
    829 OA         25.8290   30.4200   45.6670 O.3     1  H101        0.0000
    830 OA         14.4090   19.3400   45.6670 O.3     1  H101        0.0000
    831 OA          2.9890   30.4200   45.6670 O.3     1  H101        0.0000
    832 OA         14.4090    8.2600   45.6670 O.3     1  H101        0.0000
    833 OA         14.4090   30.4200   45.6670 O.3     1  H101        0.0000
    834 OA         25.8290    8.2600   45.6670 O.3     1  H101        0.0000
    835 OA         25.8290   19.3400   45.6670 O.3     1  H101        0.0000
    836 OA         31.2490   30.3400   29.3870 O.3     1  H101        0.0000
    837 OA          8.4090   30.3400   29.3870 O.3     1  H101        0.0000
    838 OA         12.0390   12.0500   29.2870 O.3     1  H101        0.0000
    839 OA          0.6190   23.1300   29.2870 O.3     1  H101        0.0000
    840 OA         10.5890   21.2700   44.1670 O.3     1  H101        0.0000
    841 OA         33.4290   10.1900   44.1670 O.3     1  H101        0.0000
    842 OA         22.0090   32.3500   44.1670 O.3     1  H101        0.0000
    843 OA         33.4290   21.2700   44.1670 O.3     1  H101        0.0000
    844 OA         10.5890   10.1900   44.1670 O.3     1  H101        0.0000
    845 OA         33.4290   32.3500   44.1670 O.3     1  H101        0.0000
    846 OA         22.0090   10.1900   44.1670 O.3     1  H101        0.0000
    847 OA         10.5890   32.3500   44.1670 O.3     1  H101        0.0000
    848 OA         22.0090   21.2700   44.1670 O.3     1  H101        0.0000
    849 OA         10.2890   13.8900   44.1870 O.3     1  H101        0.0000
    850 OA         10.2890   24.9700   44.1870 O.3     1  H101        0.0000
    851 OA         33.1290   13.8900   44.1870 O.3     1  H101        0.0000
    852 OA         21.7090    2.8100   44.1870 O.3     1  H101        0.0000
    853 OA         33.1290   24.9700   44.1870 O.3     1  H101        0.0000
    854 OA         33.1290    2.8100   44.1870 O.3     1  H101        0.0000
    855 OA         10.2890    2.8100   44.1870 O.3     1  H101        0.0000
    856 OA         21.7090   24.9700   44.1870 O.3     1  H101        0.0000
    857 OA         21.7090   13.8900   44.1870 O.3     1  H101        0.0000
    858 OA         31.5190   13.7500   30.9770 O.3     1  H101        0.0000
    859 OA         19.8290   19.2600   29.3870 O.3     1  H101        0.0000
    860 OA          8.6790   24.8300   30.9770 O.3     1  H101        0.0000
    861 OA          0.6190    0.9700   29.2870 O.3     1  H101        0.0000
    862 OA         27.8390    6.4600   30.9670 O.3     1  H101        0.0000
    863 OA         12.0390    0.9700   29.2870 O.3     1  H101        0.0000
    864 OA         23.4590   23.1300   29.2870 O.3     1  H101        0.0000
    865 OA         23.4590   12.0500   29.2870 O.3     1  H101        0.0000
    866 OA         27.5290   13.7600   30.9870 O.3     1  H101        0.0000
    867 OA          8.6790   13.7500   30.9770 O.3     1  H101        0.0000
    868 OA         19.7690   32.2000   30.9770 O.3     1  H101        0.0000
    869 OA         20.0990    2.6700   30.9770 O.3     1  H101        0.0000
    870 OA          8.3490   10.0400   30.9770 O.3     1  H101        0.0000
    871 OA         31.1890   21.1200   30.9770 O.3     1  H101        0.0000
    872 OA          6.7790   15.6800   45.7670 O.3     1  H101        0.0000
    873 OA          6.7790   26.7600   45.7670 O.3     1  H101        0.0000
    874 OA          6.7790    4.6000   45.7670 O.3     1  H101        0.0000
    875 OA         18.1990    4.6000   45.7670 O.3     1  H101        0.0000
    876 OA         29.6190    4.6000   45.7670 O.3     1  H101        0.0000
    877 OA         29.6190   26.7600   45.7670 O.3     1  H101        0.0000
    878 OA         29.6190   15.6800   45.7670 O.3     1  H101        0.0000
    879 OA         18.1990   26.7600   45.7670 O.3     1  H101        0.0000
    880 OA         18.1990   15.6800   45.7670 O.3     1  H101        0.0000
    881 OA         19.7690   10.0400   30.9770 O.3     1  H101        0.0000
    882 OA         31.5190   24.8300   30.9770 O.3     1  H101        0.0000
    883 OA         20.0990   13.7500   30.9770 O.3     1  H101        0.0000
    884 OA         10.3590   17.5100   44.3270 O.3     1  H101        0.0000
    885 OA         33.1990   17.5100   44.3270 O.3     1  H101        0.0000
    886 OA         33.1990    6.4300   44.3270 O.3     1  H101        0.0000
    887 OA         21.7790   28.5900   44.3270 O.3     1  H101        0.0000
    888 OA         10.3590    6.4300   44.3270 O.3     1  H101        0.0000
    889 OA         33.1990   28.5900   44.3270 O.3     1  H101        0.0000
    890 OA         10.3590   28.5900   44.3270 O.3     1  H101        0.0000
    891 OA         21.7790    6.4300   44.3270 O.3     1  H101        0.0000
    892 OA         21.7790   17.5100   44.3270 O.3     1  H101        0.0000
    893 OA         12.3390   17.5400   30.9870 O.3     1  H101        0.0000
    894 OA          0.9190    6.4600   30.9870 O.3     1  H101        0.0000
    895 OA         31.5190    2.6700   30.9770 O.3     1  H101        0.0000
    896 OA         23.7590   28.6200   30.9870 O.3     1  H101        0.0000
    897 OA          0.9190   17.5400   30.9870 O.3     1  H101        0.0000
    898 OA          8.6790    2.6700   30.9770 O.3     1  H101        0.0000
    899 OA         20.0990   24.8300   30.9770 O.3     1  H101        0.0000
    900 OA         12.3390    6.4600   30.9870 O.3     1  H101        0.0000
    901 OA          0.9190   28.6200   30.9870 O.3     1  H101        0.0000
    902 OA          3.0790   13.6700   43.9770 O.3     1  H101        0.0000
    903 OA          3.0790   24.7500   43.9770 O.3     1  H101        0.0000
    904 OA         25.9190    2.5900   43.9770 O.3     1  H101        0.0000
    905 OA          3.0790    2.5900   43.9770 O.3     1  H101        0.0000
    906 OA         14.4990   13.6700   43.9770 O.3     1  H101        0.0000
    907 OA         14.4990   24.7500   43.9770 O.3     1  H101        0.0000
    908 OA         14.4990    2.5900   43.9770 O.3     1  H101        0.0000
    909 OA         25.9190   24.7500   43.9770 O.3     1  H101        0.0000
    910 OA         25.9190   13.6700   43.9770 O.3     1  H101        0.0000
    911 OA         23.7590    6.4600   30.9870 O.3     1  H101        0.0000
    912 OA         12.3390   28.6200   30.9870 O.3     1  H101        0.0000
    913 OA         23.7590   17.5400   30.9870 O.3     1  H101        0.0000
    914 OA          6.7690   21.1400   44.0470 O.3     1  H101        0.0000
    915 OA          6.7690   10.0600   44.0470 O.3     1  H101        0.0000
    916 OA         29.6090   32.2200   44.0470 O.3     1  H101        0.0000
    917 OA         18.1890   32.2200   44.0470 O.3     1  H101        0.0000
    918 OA         29.6090   21.1400   44.0470 O.3     1  H101        0.0000
    919 OA         29.6090   10.0600   44.0470 O.3     1  H101        0.0000
    920 OA         18.1890   10.0600   44.0470 O.3     1  H101        0.0000
    921 OA          6.7690   32.2200   44.0470 O.3     1  H101        0.0000
    922 OA         18.1890   21.1400   44.0470 O.3     1  H101        0.0000
    923 OE          3.9590   28.6700   27.1070 O.3     1  H101        0.0000
    924 OE         26.7990   28.6700   27.1070 O.3     1  H101        0.0000
    925 OE          5.0190    2.8300   27.3570 O.3     1  H101        0.0000
    926 OE         27.8590    2.8300   27.3570 O.3     1  H101        0.0000
    927 OE          3.9590   17.5900   27.1070 O.3     1  H101        0.0000
    928 OE          3.9590    6.5100   27.1070 O.3     1  H101        0.0000
    929 OE          5.1290    9.2700   27.1070 O.3     1  H101        0.0000
    930 OE         15.3790    6.5100   27.1070 O.3     1  H101        0.0000
    931 OE          5.0190   24.9900   27.3570 O.3     1  H101        0.0000
    932 OE         15.3790   28.6700   27.1070 O.3     1  H101        0.0000
    933 OE         15.7590   22.0800   26.9670 O.3     1  H101        0.0000
    934 OE          5.0190   13.9100   27.3570 O.3     1  H101        0.0000
    935 OE          4.9490   20.3100   27.0470 O.3     1  H101        0.0000
    936 OE         27.8590   24.9900   27.3570 O.3     1  H101        0.0000
    937 OE         16.4390   24.9900   27.3570 O.3     1  H101        0.0000
    938 OE         16.3990    9.2400   27.0470 O.3     1  H101        0.0000
    939 OE         16.4390   13.9100   27.3570 O.3     1  H101        0.0000
    940 OE         26.7990   17.5900   27.1070 O.3     1  H101        0.0000
    941 OE         15.3790   17.5900   27.1070 O.3     1  H101        0.0000
    942 OE         16.4390    2.8300   27.3570 O.3     1  H101        0.0000
    943 OE         16.3990   31.3700   27.0570 O.3     1  H101        0.0000
    944 OE         27.6890   20.3100   27.0070 O.3     1  H101        0.0000
    945 OE         10.1990   21.6600   48.0870 O.3     1  H101        0.0000
    946 OE         33.0390   10.5800   48.0870 O.3     1  H101        0.0000
    947 OE         33.0390   21.6600   48.0870 O.3     1  H101        0.0000
    948 OE         21.6190   32.7400   48.0870 O.3     1  H101        0.0000
    949 OE         10.1990   10.5800   48.0870 O.3     1  H101        0.0000
    950 OE         33.0390   32.7400   48.0870 O.3     1  H101        0.0000
    951 OE         10.1990   32.7400   48.0870 O.3     1  H101        0.0000
    952 OE         21.6190   10.5800   48.0870 O.3     1  H101        0.0000
    953 OE         21.6190   21.6600   48.0870 O.3     1  H101        0.0000
    954 OE         11.1390   13.6800   47.9970 O.3     1  H101        0.0000
    955 OE         11.1390   24.7600   47.9970 O.3     1  H101        0.0000
    956 OE         33.9790   13.6800   47.9970 O.3     1  H101        0.0000
    957 OE         22.5590    2.6000   47.9970 O.3     1  H101        0.0000
    958 OE         33.9790   24.7600   47.9970 O.3     1  H101        0.0000
    959 OE         33.9790    2.6000   47.9970 O.3     1  H101        0.0000
    960 OE         11.1390    2.6000   47.9970 O.3     1  H101        0.0000
    961 OE         22.5590   24.7600   47.9970 O.3     1  H101        0.0000
    962 OE         22.5590   13.6800   47.9970 O.3     1  H101        0.0000
    963 OE         30.4190   13.2000   27.3770 O.3     1  H101        0.0000
    964 OE          7.5790   24.2800   27.3770 O.3     1  H101        0.0000
    965 OE         26.7990    6.5100   27.1070 O.3     1  H101        0.0000
    966 OE         27.8590   13.9100   27.3570 O.3     1  H101        0.0000
    967 OE         18.5390   31.7300   27.7270 O.3     1  H101        0.0000
    968 OE          7.5790   13.2000   27.3770 O.3     1  H101        0.0000
    969 OE         18.9990    2.1200   27.3770 O.3     1  H101        0.0000
    970 OE          9.2090   10.9000   27.2370 O.3     1  H101        0.0000
    971 OE         31.6390   21.0000   26.9570 O.3     1  H101        0.0000
    972 OE         30.4190   24.2800   27.3770 O.3     1  H101        0.0000
    973 OE         18.9990   13.2000   27.3770 O.3     1  H101        0.0000
    974 OE         18.5590    9.5200   27.7170 O.3     1  H101        0.0000
    975 OE         12.6890   17.8000   27.0970 O.3     1  H101        0.0000
    976 OE          1.2690    6.7200   27.0970 O.3     1  H101        0.0000
    977 OE         24.1090   28.8800   27.0970 O.3     1  H101        0.0000
    978 OE         30.4190    2.1200   27.3770 O.3     1  H101        0.0000
    979 OE          1.2690   17.8000   27.0970 O.3     1  H101        0.0000
    980 OE         12.6890    6.7200   27.0970 O.3     1  H101        0.0000
    981 OE          7.5790    2.1200   27.3770 O.3     1  H101        0.0000
    982 OE         18.9990   24.2800   27.3770 O.3     1  H101        0.0000
    983 OE         24.1090    6.7200   27.0970 O.3     1  H101        0.0000
    984 OE          2.3390   13.6300   47.7870 O.3     1  H101        0.0000
    985 OE          2.3390   24.7100   47.7870 O.3     1  H101        0.0000
    986 OE         25.1790    2.5500   47.7870 O.3     1  H101        0.0000
    987 OE          2.3390    2.5500   47.7870 O.3     1  H101        0.0000
    988 OE         13.7590   13.6300   47.7870 O.3     1  H101        0.0000
    989 OE         13.7590   24.7100   47.7870 O.3     1  H101        0.0000
    990 OE         13.7590    2.5500   47.7870 O.3     1  H101        0.0000
    991 OE         25.1790   24.7100   47.7870 O.3     1  H101        0.0000
    992 OE         25.1790   13.6300   47.7870 O.3     1  H101        0.0000
    993 OE          1.2690   28.8800   27.0970 O.3     1  H101        0.0000
    994 OA          8.3890   17.3200   30.8270 O.3     1  H101        0.0000
    995 OE         12.6890   28.8800   27.0970 O.3     1  H101        0.0000
    996 OE         24.1090   17.8000   27.0970 O.3     1  H101        0.0000
    997 OE         10.5390   17.7800   48.3270 O.3     1  H101        0.0000
    998 OE         33.3790   17.7800   48.3270 O.3     1  H101        0.0000
    999 OE         33.3790    6.7000   48.3270 O.3     1  H101        0.0000
   1000 OE         10.5390    6.7000   48.3270 O.3     1  H101        0.0000
   1001 OE         33.3790   28.8600   48.3270 O.3     1  H101        0.0000
   1002 OE         21.9590   28.8600   48.3270 O.3     1  H101        0.0000
   1003 OE         10.5390   28.8600   48.3270 O.3     1  H101        0.0000
   1004 OE         21.9590    6.7000   48.3270 O.3     1  H101        0.0000
   1005 OE         21.9590   17.7800   48.3270 O.3     1  H101        0.0000
   1006 OE          7.2690   21.1800   47.8970 O.3     1  H101        0.0000
   1007 OE          7.2690   10.1000   47.8970 O.3     1  H101        0.0000
   1008 OE         30.1090   32.2600   47.8970 O.3     1  H101        0.0000
   1009 OE         18.6890   32.2600   47.8970 O.3     1  H101        0.0000
   1010 OE         30.1090   21.1800   47.8970 O.3     1  H101        0.0000
   1011 OE          7.2690   32.2600   47.8970 O.3     1  H101        0.0000
   1012 OE         18.6890   10.1000   47.8970 O.3     1  H101        0.0000
   1013 OE         30.1090   10.1000   47.8970 O.3     1  H101        0.0000
   1014 OE         18.6890   21.1800   47.8970 O.3     1  H101        0.0000
   1015 OA         31.2290    6.2400   30.8270 O.3     1  H101        0.0000
   1016 OA         27.7190    9.9700   30.6670 O.3     1  H101        0.0000
   1017 OA         31.2290   17.3200   30.8270 O.3     1  H101        0.0000
   1018 OA         19.8090    6.2400   30.8270 O.3     1  H101        0.0000
   1019 OA         19.8090   28.4000   30.8270 O.3     1  H101        0.0000
   1020 OA          8.3890    6.2400   30.8270 O.3     1  H101        0.0000
   1021 OA          0.7790   10.1300   30.8770 O.3     1  H101        0.0000
   1022 OA         12.1990   21.2100   30.8770 O.3     1  H101        0.0000
   1023 OA         23.6190   32.2900   30.8770 O.3     1  H101        0.0000
   1024 OA          2.8290   17.3700   44.0770 O.3     1  H101        0.0000
   1025 OA          2.8290    6.2900   44.0770 O.3     1  H101        0.0000
   1026 OA          2.8290   28.4500   44.0770 O.3     1  H101        0.0000
   1027 OA         25.6690   28.4500   44.0770 O.3     1  H101        0.0000
   1028 OA         14.2490   17.3700   44.0770 O.3     1  H101        0.0000
   1029 OA         14.2490    6.2900   44.0770 O.3     1  H101        0.0000
   1030 OA         14.2490   28.4500   44.0770 O.3     1  H101        0.0000
   1031 OA         25.6690    6.2900   44.0770 O.3     1  H101        0.0000
   1032 OA         25.6690   17.3700   44.0770 O.3     1  H101        0.0000
   1033 OA          0.9590   13.8400   30.7270 O.3     1  H101        0.0000
   1034 OA          8.3890   28.4000   30.8270 O.3     1  H101        0.0000
   1035 OA         23.7990    2.7600   30.7270 O.3     1  H101        0.0000
   1036 OA         12.3790   24.9200   30.7270 O.3     1  H101        0.0000
   1037 OA         31.2290   28.4000   30.8270 O.3     1  H101        0.0000
   1038 OA         31.1890   32.2000   30.9770 O.3     1  H101        0.0000
   1039 OA         12.3790   13.8400   30.7270 O.3     1  H101        0.0000
   1040 OA          0.7790   21.2100   30.8770 O.3     1  H101        0.0000
   1041 OA         12.1990   10.1300   30.8770 O.3     1  H101        0.0000
   1042 OA          8.3490   32.2000   30.9770 O.3     1  H101        0.0000
   1043 OA          0.9590   24.9200   30.7270 O.3     1  H101        0.0000
   1044 OA          0.9590    2.7600   30.7270 O.3     1  H101        0.0000
   1045 OA         19.8090   17.3200   30.8270 O.3     1  H101        0.0000
   1046 OA         19.7690   21.1200   30.9770 O.3     1  H101        0.0000
   1047 OA          3.0990   21.1100   44.0470 O.3     1  H101        0.0000
   1048 OA          3.0990   10.0300   44.0470 O.3     1  H101        0.0000
   1049 OA         25.9390   32.1900   44.0470 O.3     1  H101        0.0000
   1050 OA         14.5190   10.0300   44.0470 O.3     1  H101        0.0000
   1051 OA         14.5190   21.1100   44.0470 O.3     1  H101        0.0000
   1052 OA          3.0990   32.1900   44.0470 O.3     1  H101        0.0000
   1053 OA         14.5190   32.1900   44.0470 O.3     1  H101        0.0000
   1054 OA         25.9390   21.1100   44.0470 O.3     1  H101        0.0000
   1055 OA         25.9390   10.0300   44.0470 O.3     1  H101        0.0000
   1056 OA          0.7790   32.2900   30.8770 O.3     1  H101        0.0000
   1057 OA         23.7990   24.9200   30.7270 O.3     1  H101        0.0000
   1058 OA         12.3790    2.7600   30.7270 O.3     1  H101        0.0000
   1059 OA         23.7990   13.8400   30.7270 O.3     1  H101        0.0000
   1060 OA          6.6690   24.8500   44.1170 O.3     1  H101        0.0000
   1061 OA          6.6690   13.7700   44.1170 O.3     1  H101        0.0000
   1062 OA         18.0890    2.6900   44.1170 O.3     1  H101        0.0000
   1063 OA         29.5090    2.6900   44.1170 O.3     1  H101        0.0000
   1064 OA         29.5090   24.8500   44.1170 O.3     1  H101        0.0000
   1065 OA         29.5090   13.7700   44.1170 O.3     1  H101        0.0000
   1066 OA          6.6690    2.6900   44.1170 O.3     1  H101        0.0000
   1067 OA         18.0890   13.7700   44.1170 O.3     1  H101        0.0000
   1068 OA         18.0890   24.8500   44.1170 O.3     1  H101        0.0000
   1069 OA         23.6190   10.1300   30.8770 O.3     1  H101        0.0000
   1070 OA         12.1990   32.2900   30.8770 O.3     1  H101        0.0000
   1071 OA         23.6190   21.2100   30.8770 O.3     1  H101        0.0000
   1072 OA          6.6990   17.4900   44.1270 O.3     1  H101        0.0000
   1073 OA          6.6990    6.4100   44.1270 O.3     1  H101        0.0000
   1074 OA          6.6990   28.5700   44.1270 O.3     1  H101        0.0000
   1075 OA         29.5390   28.5700   44.1270 O.3     1  H101        0.0000
   1076 OA         18.1190    6.4100   44.1270 O.3     1  H101        0.0000
   1077 OA         29.5390    6.4100   44.1270 O.3     1  H101        0.0000
   1078 OA         29.5390   17.4900   44.1270 O.3     1  H101        0.0000
   1079 OA         18.1190   28.5700   44.1270 O.3     1  H101        0.0000
   1080 OA         18.1190   17.4900   44.1270 O.3     1  H101        0.0000
   1081 OA          6.5390   23.2300   31.7770 O.3     1  H101        0.0000
   1082 OA          6.5290   19.4200   31.8270 O.3     1  H101        0.0000
   1083 OA          6.5390   12.1500   31.7770 O.3     1  H101        0.0000
   1084 OA         17.9590    1.0700   31.7770 O.3     1  H101        0.0000
   1085 OA         29.3790   23.2300   31.7770 O.3     1  H101        0.0000
   1086 OA         17.9590   12.1500   31.7770 O.3     1  H101        0.0000
   1087 OA         25.5390   30.5100   31.9270 O.3     1  H101        0.0000
   1088 OA         29.3790   12.1500   31.7770 O.3     1  H101        0.0000
   1089 OA         29.3790    1.0700   31.7770 O.3     1  H101        0.0000
   1090 OA          6.5390    1.0700   31.7770 O.3     1  H101        0.0000
   1091 OA          2.6990   30.5100   31.9270 O.3     1  H101        0.0000
   1092 OA          6.5390   15.4800   31.9270 O.3     1  H101        0.0000
   1093 OA          6.5390   26.5600   31.9270 O.3     1  H101        0.0000
   1094 OA          6.5290    8.3400   31.8270 O.3     1  H101        0.0000
   1095 OA         17.9590    4.4000   31.9270 O.3     1  H101        0.0000
   1096 OA         17.9490   30.5000   31.8270 O.3     1  H101        0.0000
   1097 OA         17.9490    8.3400   31.8270 O.3     1  H101        0.0000
   1098 OA         29.3690   19.4200   31.8270 O.3     1  H101        0.0000
   1099 OA          6.5390    4.4000   31.9270 O.3     1  H101        0.0000
   1100 OA         29.3790   26.5600   31.9270 O.3     1  H101        0.0000
   1101 OA         29.3790   15.4800   31.9270 O.3     1  H101        0.0000
   1102 OA          2.6990    8.3500   31.9270 O.3     1  H101        0.0000
   1103 OA         29.3790    4.4000   31.9270 O.3     1  H101        0.0000
   1104 OA          2.8290    4.5300   31.7370 O.3     1  H101        0.0000
   1105 OA         25.6590    0.8100   31.6270 O.3     1  H101        0.0000
   1106 OA          2.6990   19.4300   31.9270 O.3     1  H101        0.0000
   1107 OA          2.8290   26.6900   31.7370 O.3     1  H101        0.0000
   1108 OA         14.1190   19.4300   31.9270 O.3     1  H101        0.0000
   1109 OA          2.8290   15.6100   31.7370 O.3     1  H101        0.0000
   1110 OA         17.9590   26.5600   31.9270 O.3     1  H101        0.0000
   1111 OA         25.6690   26.6900   31.7370 O.3     1  H101        0.0000
   1112 OA         17.9590   15.4800   31.9270 O.3     1  H101        0.0000
   1113 OA         14.2490   15.6100   31.7370 O.3     1  H101        0.0000
   1114 OA         14.1190    8.3500   31.9270 O.3     1  H101        0.0000
   1115 OA         29.3690   30.5000   31.8270 O.3     1  H101        0.0000
   1116 OA         29.3690    8.3400   31.8270 O.3     1  H101        0.0000
   1117 OA         14.2490   26.6900   31.7370 O.3     1  H101        0.0000
   1118 OA         25.6690    4.5300   31.7370 O.3     1  H101        0.0000
   1119 OA         10.3290   19.3000   31.7770 O.3     1  H101        0.0000
   1120 OA          6.5290   30.5000   31.8270 O.3     1  H101        0.0000
   1121 OA         14.2490    4.5300   31.7370 O.3     1  H101        0.0000
   1122 OA         10.4290   22.9500   31.8070 O.3     1  H101        0.0000
   1123 OA          2.8190    0.8100   31.6270 O.3     1  H101        0.0000
   1124 OA         33.2690   11.8700   31.8070 O.3     1  H101        0.0000
   1125 OA         33.1690    8.2200   31.7770 O.3     1  H101        0.0000
   1126 OA         17.9590   23.2300   31.7770 O.3     1  H101        0.0000
   1127 OA          0.9390   12.0900   43.2670 O.3     1  H101        0.0000
   1128 OA         12.3590   23.1700   43.2670 O.3     1  H101        0.0000
   1129 OA         23.7790    1.0100   43.2670 O.3     1  H101        0.0000
   1130 OA          0.9390   23.1700   43.2670 O.3     1  H101        0.0000
   1131 OA         12.3590   12.0900   43.2670 O.3     1  H101        0.0000
   1132 OA          0.9390    1.0100   43.2670 O.3     1  H101        0.0000
   1133 OA         12.3590    1.0100   43.2670 O.3     1  H101        0.0000
   1134 OA         23.7790   12.0900   43.2670 O.3     1  H101        0.0000
   1135 OA         23.7790   23.1700   43.2670 O.3     1  H101        0.0000
   1136 OA         14.1190   30.5100   31.9270 O.3     1  H101        0.0000
   1137 OA         25.6690   15.6100   31.7370 O.3     1  H101        0.0000
   1138 OA          8.5390   22.9600   43.1870 O.3     1  H101        0.0000
   1139 OA          8.5390   11.8800   43.1870 O.3     1  H101        0.0000
   1140 OA         31.3790   11.8800   43.1870 O.3     1  H101        0.0000
   1141 OA         19.9590    0.8000   43.1870 O.3     1  H101        0.0000
   1142 OA         31.3790   22.9600   43.1870 O.3     1  H101        0.0000
   1143 OA         31.3790    0.8000   43.1870 O.3     1  H101        0.0000
   1144 OA         19.9590   11.8800   43.1870 O.3     1  H101        0.0000
   1145 OA          8.5390    0.8000   43.1870 O.3     1  H101        0.0000
   1146 OA         19.9590   22.9600   43.1870 O.3     1  H101        0.0000
   1147 OA         25.5390   19.4300   31.9270 O.3     1  H101        0.0000
   1148 OA          1.0190   15.5300   43.2770 O.3     1  H101        0.0000
   1149 OA         12.4390   15.5300   43.2770 O.3     1  H101        0.0000
   1150 OA          1.0190    4.4500   43.2770 O.3     1  H101        0.0000
   1151 OA          1.0190   26.6100   43.2770 O.3     1  H101        0.0000
   1152 OA         12.4390   26.6100   43.2770 O.3     1  H101        0.0000
   1153 OA         23.8590    4.4500   43.2770 O.3     1  H101        0.0000
   1154 OA         23.8590   26.6100   43.2770 O.3     1  H101        0.0000
   1155 OA         12.4390    4.4500   43.2770 O.3     1  H101        0.0000
   1156 OA         23.8590   15.5300   43.2770 O.3     1  H101        0.0000
   1157 OA          2.8190   11.8900   31.6270 O.3     1  H101        0.0000
   1158 OA          8.6390   19.2500   43.1170 O.3     1  H101        0.0000
   1159 OA         31.4790    8.1700   43.1170 O.3     1  H101        0.0000
   1160 OA          8.6390    8.1700   43.1170 O.3     1  H101        0.0000
   1161 OA         31.4790   19.2500   43.1170 O.3     1  H101        0.0000
   1162 OA         20.0590   30.3300   43.1170 O.3     1  H101        0.0000
   1163 OA         20.0590    8.1700   43.1170 O.3     1  H101        0.0000
   1164 OA         31.4790   30.3300   43.1170 O.3     1  H101        0.0000
   1165 OA          8.6390   30.3300   43.1170 O.3     1  H101        0.0000
   1166 OA         20.0590   19.2500   43.1170 O.3     1  H101        0.0000
   1167 OA          2.8190   22.9700   31.6270 O.3     1  H101        0.0000
   1168 OA         14.2390   22.9700   31.6270 O.3     1  H101        0.0000
   1169 OA         14.2390   11.8900   31.6270 O.3     1  H101        0.0000
   1170 OA         21.8490    0.7900   31.8070 O.3     1  H101        0.0000
   1171 OA         10.3890   15.6600   31.8570 O.3     1  H101        0.0000
   1172 OA         33.2290   15.6600   31.8570 O.3     1  H101        0.0000
   1173 OA         21.7490   30.3800   31.7770 O.3     1  H101        0.0000
   1174 OA         17.9490   19.4200   31.8270 O.3     1  H101        0.0000
   1175 OA         25.6590   22.9700   31.6270 O.3     1  H101        0.0000
   1176 OA         14.2390    0.8100   31.6270 O.3     1  H101        0.0000
   1177 OA         10.4290   11.8700   31.8070 O.3     1  H101        0.0000
   1178 OA         33.1690   19.3000   31.7770 O.3     1  H101        0.0000
   1179 OA         21.8090    4.5800   31.8570 O.3     1  H101        0.0000
   1180 OA         33.2690   22.9500   31.8070 O.3     1  H101        0.0000
   1181 OA         10.3290    8.2200   31.7770 O.3     1  H101        0.0000
   1182 OA         10.3890   26.7400   31.8570 O.3     1  H101        0.0000
   1183 OA         33.2290    4.5800   31.8570 O.3     1  H101        0.0000
   1184 OA         12.4190   19.2700   43.3070 O.3     1  H101        0.0000
   1185 OA          0.9990    8.1900   43.3070 O.3     1  H101        0.0000
   1186 OA          0.9990   19.2700   43.3070 O.3     1  H101        0.0000
   1187 OA         23.8390   30.3500   43.3070 O.3     1  H101        0.0000
   1188 OA         12.4190    8.1900   43.3070 O.3     1  H101        0.0000
   1189 OA          0.9990   30.3500   43.3070 O.3     1  H101        0.0000
   1190 OA         12.4190   30.3500   43.3070 O.3     1  H101        0.0000
   1191 OA         23.8390    8.1900   43.3070 O.3     1  H101        0.0000
   1192 OA         23.8390   19.2700   43.3070 O.3     1  H101        0.0000
   1193 OA         25.5390    8.3500   31.9270 O.3     1  H101        0.0000
   1194 OA         33.2290   26.7400   31.8570 O.3     1  H101        0.0000
   1195 OA         21.8090   26.7400   31.8570 O.3     1  H101        0.0000
   1196 OA         10.3890    4.5800   31.8570 O.3     1  H101        0.0000
   1197 OA         21.7490    8.2200   31.7770 O.3     1  H101        0.0000
   1198 OA         21.8490   11.8700   31.8070 O.3     1  H101        0.0000
   1199 OA         21.8090   15.6600   31.8570 O.3     1  H101        0.0000
   1200 OA          8.5090   15.6400   43.2470 O.3     1  H101        0.0000
   1201 OA          8.5090   26.7200   43.2470 O.3     1  H101        0.0000
   1202 OA         31.3490   15.6400   43.2470 O.3     1  H101        0.0000
   1203 OA         19.9290    4.5600   43.2470 O.3     1  H101        0.0000
   1204 OA         31.3490    4.5600   43.2470 O.3     1  H101        0.0000
   1205 OA         31.3490   26.7200   43.2470 O.3     1  H101        0.0000
   1206 OA          8.5090    4.5600   43.2470 O.3     1  H101        0.0000
   1207 OA         19.9290   26.7200   43.2470 O.3     1  H101        0.0000
   1208 OA         19.9290   15.6400   43.2470 O.3     1  H101        0.0000
   1209 OA          4.8590   22.7800   43.1770 O.3     1  H101        0.0000
   1210 OA          4.8590   11.7000   43.1770 O.3     1  H101        0.0000
   1211 OA         27.6990    0.6200   43.1770 O.3     1  H101        0.0000
   1212 OA          4.8590    0.6200   43.1770 O.3     1  H101        0.0000
   1213 OA         16.2790   11.7000   43.1770 O.3     1  H101        0.0000
   1214 OA         16.2790    0.6200   43.1770 O.3     1  H101        0.0000
   1215 OA         27.6990   22.7800   43.1770 O.3     1  H101        0.0000
   1216 OA         16.2790   22.7800   43.1770 O.3     1  H101        0.0000
   1217 OA         27.6990   11.7000   43.1770 O.3     1  H101        0.0000
   1218 OA         25.6590   11.8900   31.6270 O.3     1  H101        0.0000
   1219 OA         33.2690    0.7900   31.8070 O.3     1  H101        0.0000
   1220 OA         33.1690   30.3800   31.7770 O.3     1  H101        0.0000
   1221 OA         10.3290   30.3800   31.7770 O.3     1  H101        0.0000
   1222 OA         10.4290    0.7900   31.8070 O.3     1  H101        0.0000
   1223 OA         21.8490   22.9500   31.8070 O.3     1  H101        0.0000
   1224 OA         21.7490   19.3000   31.7770 O.3     1  H101        0.0000
   1225 OA          4.7990   15.5100   43.1470 O.3     1  H101        0.0000
   1226 OA          4.9090   19.2000   43.2470 O.3     1  H101        0.0000
   1227 OA          4.7990   26.5900   43.1470 O.3     1  H101        0.0000
   1228 OA          4.7990    4.4300   43.1470 O.3     1  H101        0.0000
   1229 OA          4.9090    8.1200   43.2470 O.3     1  H101        0.0000
   1230 OA         27.6390   26.5900   43.1470 O.3     1  H101        0.0000
   1231 OA         27.7490   30.2800   43.2470 O.3     1  H101        0.0000
   1232 OA         16.2190    4.4300   43.1470 O.3     1  H101        0.0000
   1233 OA         27.6390    4.4300   43.1470 O.3     1  H101        0.0000
   1234 OA          4.9090   30.2800   43.2470 O.3     1  H101        0.0000
   1235 OA         16.2190   15.5100   43.1470 O.3     1  H101        0.0000
   1236 OA         16.3290    8.1200   43.2470 O.3     1  H101        0.0000
   1237 OA         16.2190   26.5900   43.1470 O.3     1  H101        0.0000
   1238 OA         27.6390   15.5100   43.1470 O.3     1  H101        0.0000
   1239 OA         16.3290   30.2800   43.2470 O.3     1  H101        0.0000
   1240 OA         27.7490   19.2000   43.2470 O.3     1  H101        0.0000
   1241 OA         16.3290   19.2000   43.2470 O.3     1  H101        0.0000
   1242 OA         27.7490    8.1200   43.2470 O.3     1  H101        0.0000
   1243 OA         27.5190   30.4500   33.4270 O.3     1  H101        0.0000
   1244 OA         27.6290    0.7600   33.3870 O.3     1  H101        0.0000
   1245 OA          4.6790   30.4500   33.4270 O.3     1  H101        0.0000
   1246 OA          4.7890    0.7600   33.3870 O.3     1  H101        0.0000
   1247 OA          8.4890   23.1300   33.3570 O.3     1  H101        0.0000
   1248 OA         31.3290   12.0500   33.3570 O.3     1  H101        0.0000
   1249 OA          4.6790   19.3700   33.4270 O.3     1  H101        0.0000
   1250 OA          4.7890   22.9200   33.3870 O.3     1  H101        0.0000
   1251 OA          4.6290   26.9000   33.3670 O.3     1  H101        0.0000
   1252 OA          4.6290    4.7400   33.3670 O.3     1  H101        0.0000
   1253 OA         27.4690   26.9000   33.3670 O.3     1  H101        0.0000
   1254 OA          4.6290   15.8200   33.3670 O.3     1  H101        0.0000
   1255 OA          4.6790    8.2900   33.4270 O.3     1  H101        0.0000
   1256 OA          4.7890   11.8400   33.3870 O.3     1  H101        0.0000
   1257 OA         16.0990    8.2900   33.4270 O.3     1  H101        0.0000
   1258 OA         16.0490    4.7400   33.3670 O.3     1  H101        0.0000
   1259 OA         16.2090   11.8400   33.3870 O.3     1  H101        0.0000
   1260 OA         27.4690    4.7400   33.3670 O.3     1  H101        0.0000
   1261 OA         16.0490   15.8200   33.3670 O.3     1  H101        0.0000
   1262 OA         16.0490   26.9000   33.3670 O.3     1  H101        0.0000
   1263 OA         16.0990   30.4500   33.4270 O.3     1  H101        0.0000
   1264 OA         27.6290   22.9200   33.3870 O.3     1  H101        0.0000
   1265 OA         16.2090    0.7600   33.3870 O.3     1  H101        0.0000
   1266 OA          8.4890   19.0600   33.3070 O.3     1  H101        0.0000
   1267 OA         27.5190   19.3700   33.4270 O.3     1  H101        0.0000
   1268 OA         27.4690   15.8200   33.3670 O.3     1  H101        0.0000
   1269 OA         16.2090   22.9200   33.3870 O.3     1  H101        0.0000
   1270 OA         16.0990   19.3700   33.4270 O.3     1  H101        0.0000
   1271 OA         10.5190   22.8800   41.6770 O.3     1  H101        0.0000
   1272 OA         33.3590   11.8000   41.6770 O.3     1  H101        0.0000
   1273 OA         21.9390    0.7200   41.6770 O.3     1  H101        0.0000
   1274 OA         10.5190   11.8000   41.6770 O.3     1  H101        0.0000
   1275 OA         33.3590   22.8800   41.6770 O.3     1  H101        0.0000
   1276 OA         33.3590    0.7200   41.6770 O.3     1  H101        0.0000
   1277 OA         21.9390   11.8000   41.6770 O.3     1  H101        0.0000
   1278 OA         10.5190    0.7200   41.6770 O.3     1  H101        0.0000
   1279 OA         21.9390   22.8800   41.6770 O.3     1  H101        0.0000
   1280 OA         19.9090    0.9700   33.3570 O.3     1  H101        0.0000
   1281 OA          8.4890   12.0500   33.3570 O.3     1  H101        0.0000
   1282 OA         31.3290   23.1300   33.3570 O.3     1  H101        0.0000
   1283 OA         31.3290    7.9800   33.3070 O.3     1  H101        0.0000
   1284 OA         19.9090   12.0500   33.3570 O.3     1  H101        0.0000
   1285 OA         10.5290   19.2900   41.5870 O.3     1  H101        0.0000
   1286 OA         33.3690    8.2100   41.5870 O.3     1  H101        0.0000
   1287 OA         33.3690   19.2900   41.5870 O.3     1  H101        0.0000
   1288 OA         21.9490   30.3700   41.5870 O.3     1  H101        0.0000
   1289 OA         10.4290   15.8300   41.7770 O.3     1  H101        0.0000
   1290 OA         10.5290    8.2100   41.5870 O.3     1  H101        0.0000
   1291 OA         33.2690   15.8300   41.7770 O.3     1  H101        0.0000
   1292 OA         33.3690   30.3700   41.5870 O.3     1  H101        0.0000
   1293 OA         10.4290   26.9100   41.7770 O.3     1  H101        0.0000
   1294 OA         33.2690    4.7500   41.7770 O.3     1  H101        0.0000
   1295 OA         21.9490    8.2100   41.5870 O.3     1  H101        0.0000
   1296 OA         21.8490    4.7500   41.7770 O.3     1  H101        0.0000
   1297 OA         33.2690   26.9100   41.7770 O.3     1  H101        0.0000
   1298 OA         10.5290   30.3700   41.5870 O.3     1  H101        0.0000
   1299 OA         10.4290    4.7500   41.7770 O.3     1  H101        0.0000
   1300 OA         21.8490   26.9100   41.7770 O.3     1  H101        0.0000
   1301 OA         21.9490   19.2900   41.5870 O.3     1  H101        0.0000
   1302 OA         21.8490   15.8300   41.7770 O.3     1  H101        0.0000
   1303 OA          8.4490   15.6400   33.4070 O.3     1  H101        0.0000
   1304 OA         31.2890   15.6400   33.4070 O.3     1  H101        0.0000
   1305 OA         19.9090   30.1400   33.3070 O.3     1  H101        0.0000
   1306 OA         31.3290   19.0600   33.3070 O.3     1  H101        0.0000
   1307 OA          8.4490   26.7200   33.4070 O.3     1  H101        0.0000
   1308 OA         19.8690    4.5600   33.4070 O.3     1  H101        0.0000
   1309 OA         12.2090   19.3600   33.4870 O.3     1  H101        0.0000
   1310 OA          0.7890    8.2800   33.4870 O.3     1  H101        0.0000
   1311 OA          8.4890    7.9800   33.3070 O.3     1  H101        0.0000
   1312 OA         27.5190    8.2900   33.4270 O.3     1  H101        0.0000
   1313 OA         23.6290   30.4400   33.4870 O.3     1  H101        0.0000
   1314 OA         27.6290   11.8400   33.3870 O.3     1  H101        0.0000
   1315 OA         31.2890    4.5600   33.4070 O.3     1  H101        0.0000
   1316 OA         19.9090    7.9800   33.3070 O.3     1  H101        0.0000
   1317 OA         31.2890   26.7200   33.4070 O.3     1  H101        0.0000
   1318 OA          8.4490    4.5600   33.4070 O.3     1  H101        0.0000
   1319 OA          0.9090   15.7200   33.2570 O.3     1  H101        0.0000
   1320 OA         19.8690   26.7200   33.4070 O.3     1  H101        0.0000
   1321 OA         12.3290   15.7200   33.2570 O.3     1  H101        0.0000
   1322 OA         19.8690   15.6400   33.4070 O.3     1  H101        0.0000
   1323 OA          0.7890   19.3600   33.4870 O.3     1  H101        0.0000
   1324 OA          0.9090    4.6400   33.2570 O.3     1  H101        0.0000
   1325 OA         23.7490    4.6400   33.2570 O.3     1  H101        0.0000
   1326 OA         12.2090    8.2800   33.4870 O.3     1  H101        0.0000
   1327 OA         12.3290   26.8000   33.2570 O.3     1  H101        0.0000
   1328 OA          0.9090   26.8000   33.2570 O.3     1  H101        0.0000
   1329 OA         31.3290    0.9700   33.3570 O.3     1  H101        0.0000
   1330 OA         23.7490   26.8000   33.2570 O.3     1  H101        0.0000
   1331 OA         12.3290    4.6400   33.2570 O.3     1  H101        0.0000
   1332 OA          8.4890    0.9700   33.3570 O.3     1  H101        0.0000
   1333 OA          0.7890   30.4400   33.4870 O.3     1  H101        0.0000
   1334 OA          2.9290   11.9700   41.5870 O.3     1  H101        0.0000
   1335 OA         23.7490   15.7200   33.2570 O.3     1  H101        0.0000
   1336 OA          2.9290   23.0500   41.5870 O.3     1  H101        0.0000
   1337 OA         25.7690    0.8900   41.5870 O.3     1  H101        0.0000
   1338 OA         14.3490   11.9700   41.5870 O.3     1  H101        0.0000
   1339 OA         14.3490   23.0500   41.5870 O.3     1  H101        0.0000
   1340 OA          2.9290    0.8900   41.5870 O.3     1  H101        0.0000
   1341 OA         14.3490    0.8900   41.5870 O.3     1  H101        0.0000
   1342 OA         25.7690   23.0500   41.5870 O.3     1  H101        0.0000
   1343 OA         25.7690   11.9700   41.5870 O.3     1  H101        0.0000
   1344 OA          6.6790   23.3200   41.6870 O.3     1  H101        0.0000
   1345 OA          6.6790   12.2400   41.6870 O.3     1  H101        0.0000
   1346 OA         18.0990    1.1600   41.6870 O.3     1  H101        0.0000
   1347 OA         29.5190    1.1600   41.6870 O.3     1  H101        0.0000
   1348 OA         29.5190   23.3200   41.6870 O.3     1  H101        0.0000
   1349 OA         29.5190   12.2400   41.6870 O.3     1  H101        0.0000
   1350 OA         18.0990   12.2400   41.6870 O.3     1  H101        0.0000
   1351 OA          6.6790    1.1600   41.6870 O.3     1  H101        0.0000
   1352 OA         18.0990   23.3200   41.6870 O.3     1  H101        0.0000
   1353 OA         19.9090   23.1300   33.3570 O.3     1  H101        0.0000
   1354 OA          2.8790   15.5300   41.5570 O.3     1  H101        0.0000
   1355 OA          2.8790   26.6100   41.5570 O.3     1  H101        0.0000
   1356 OA          2.8790    4.4500   41.5570 O.3     1  H101        0.0000
   1357 OA         14.2990   15.5300   41.5570 O.3     1  H101        0.0000
   1358 OA         25.7190   26.6100   41.5570 O.3     1  H101        0.0000
   1359 OA         25.7190    4.4500   41.5570 O.3     1  H101        0.0000
   1360 OA         14.2990   26.6100   41.5570 O.3     1  H101        0.0000
   1361 OA         14.2990    4.4500   41.5570 O.3     1  H101        0.0000
   1362 OA         25.7190   15.5300   41.5570 O.3     1  H101        0.0000
   1363 OA         23.6290    8.2800   33.4870 O.3     1  H101        0.0000
   1364 OA         12.2090   30.4400   33.4870 O.3     1  H101        0.0000
   1365 OA         23.6290   19.3600   33.4870 O.3     1  H101        0.0000
   1366 OA          0.9690   11.9600   33.3370 O.3     1  H101        0.0000
   1367 OA          6.7590   19.2600   41.5370 O.3     1  H101        0.0000
   1368 OA          6.7590    8.1800   41.5370 O.3     1  H101        0.0000
   1369 OA         12.3890   23.0400   33.3370 O.3     1  H101        0.0000
   1370 OA         29.5990   30.3400   41.5370 O.3     1  H101        0.0000
   1371 OA         18.1790   30.3400   41.5370 O.3     1  H101        0.0000
   1372 OA         18.1790    8.1800   41.5370 O.3     1  H101        0.0000
   1373 OA         29.5990   19.2600   41.5370 O.3     1  H101        0.0000
   1374 OA         29.5990    8.1800   41.5370 O.3     1  H101        0.0000
   1375 OA          6.7590   30.3400   41.5370 O.3     1  H101        0.0000
   1376 OA         18.1790   19.2600   41.5370 O.3     1  H101        0.0000
   1377 OA         23.8090    0.8800   33.3370 O.3     1  H101        0.0000
   1378 OA          0.9690   23.0400   33.3370 O.3     1  H101        0.0000
   1379 OA         12.3890   11.9600   33.3370 O.3     1  H101        0.0000
   1380 OA         31.3290   30.1400   33.3070 O.3     1  H101        0.0000
   1381 OA          8.4890   30.1400   33.3070 O.3     1  H101        0.0000
   1382 OA          0.9690    0.8800   33.3370 O.3     1  H101        0.0000
   1383 OA         19.9090   19.0600   33.3070 O.3     1  H101        0.0000
   1384 OA          2.9490   19.2800   41.7170 O.3     1  H101        0.0000
   1385 OA          2.9490    8.2000   41.7170 O.3     1  H101        0.0000
   1386 OA         25.7890   30.3600   41.7170 O.3     1  H101        0.0000
   1387 OA         14.3690   19.2800   41.7170 O.3     1  H101        0.0000
   1388 OA         14.3690    8.2000   41.7170 O.3     1  H101        0.0000
   1389 OA          2.9490   30.3600   41.7170 O.3     1  H101        0.0000
   1390 OA         14.3690   30.3600   41.7170 O.3     1  H101        0.0000
   1391 OA         25.7890    8.2000   41.7170 O.3     1  H101        0.0000
   1392 OA         25.7890   19.2800   41.7170 O.3     1  H101        0.0000
   1393 OA         12.3890    0.8800   33.3370 O.3     1  H101        0.0000
   1394 OA         23.8090   11.9600   33.3370 O.3     1  H101        0.0000
   1395 OA         23.8090   23.0400   33.3370 O.3     1  H101        0.0000
   1396 OA          6.6990   15.6900   41.5570 O.3     1  H101        0.0000
   1397 OA          6.6990   26.7700   41.5570 O.3     1  H101        0.0000
   1398 OA         18.1190    4.6100   41.5570 O.3     1  H101        0.0000
   1399 OA          6.6990    4.6100   41.5570 O.3     1  H101        0.0000
   1400 OA         29.5390   26.7700   41.5570 O.3     1  H101        0.0000
   1401 OA         29.5390    4.6100   41.5570 O.3     1  H101        0.0000
   1402 OA         29.5390   15.6900   41.5570 O.3     1  H101        0.0000
   1403 OA         18.1190   26.7700   41.5570 O.3     1  H101        0.0000
   1404 OA         18.1190   15.6900   41.5570 O.3     1  H101        0.0000
   1405 OA          6.8090   21.1000   34.1570 O.3     1  H101        0.0000
   1406 OA          6.6990   24.8700   34.2570 O.3     1  H101        0.0000
   1407 OA          6.5890   17.4900   34.3370 O.3     1  H101        0.0000
   1408 OA          6.6990   13.7900   34.2570 O.3     1  H101        0.0000
   1409 OA          6.8090   10.0200   34.1570 O.3     1  H101        0.0000
   1410 OA         18.1190    2.7100   34.2570 O.3     1  H101        0.0000
   1411 OA         18.2290   32.1800   34.1570 O.3     1  H101        0.0000
   1412 OA         29.6490   21.1000   34.1570 O.3     1  H101        0.0000
   1413 OA         29.5390   24.8700   34.2570 O.3     1  H101        0.0000
   1414 OA         18.2290   10.0200   34.1570 O.3     1  H101        0.0000
   1415 OA         25.6790   32.2600   34.2070 O.3     1  H101        0.0000
   1416 OA         29.5390   13.7900   34.2570 O.3     1  H101        0.0000
   1417 OA         25.3790   28.5900   34.2770 O.3     1  H101        0.0000
   1418 OA         18.1190   13.7900   34.2570 O.3     1  H101        0.0000
   1419 OA         29.5390    2.7100   34.2570 O.3     1  H101        0.0000
   1420 OA          6.6990    2.7100   34.2570 O.3     1  H101        0.0000
   1421 OA         29.6490   32.1800   34.1570 O.3     1  H101        0.0000
   1422 OA         29.6490   10.0200   34.1570 O.3     1  H101        0.0000
   1423 OA          2.5390   28.5900   34.2770 O.3     1  H101        0.0000
   1424 OA          6.5890    6.4100   34.3370 O.3     1  H101        0.0000
   1425 OA         18.0090    6.4100   34.3370 O.3     1  H101        0.0000
   1426 OA          6.8090   32.1800   34.1570 O.3     1  H101        0.0000
   1427 OA         29.4290   17.4900   34.3370 O.3     1  H101        0.0000
   1428 OA          2.8390   32.2600   34.2070 O.3     1  H101        0.0000
   1429 OA          6.5890   28.5700   34.3370 O.3     1  H101        0.0000
   1430 OA          2.5390    6.4300   34.2770 O.3     1  H101        0.0000
   1431 OA         18.0090   28.5700   34.3370 O.3     1  H101        0.0000
   1432 OA         29.4290   28.5700   34.3370 O.3     1  H101        0.0000
   1433 OA          2.5390   17.5100   34.2770 O.3     1  H101        0.0000
   1434 OA         29.4290    6.4100   34.3370 O.3     1  H101        0.0000
   1435 OA         25.6290    2.6800   34.1270 O.3     1  H101        0.0000
   1436 OA         10.2790   21.2500   34.2470 O.3     1  H101        0.0000
   1437 OA          2.7890    2.6800   34.1270 O.3     1  H101        0.0000
   1438 OA         13.9590   17.5100   34.2770 O.3     1  H101        0.0000
   1439 OA          2.8390   10.1000   34.2070 O.3     1  H101        0.0000
   1440 OA         13.9590    6.4300   34.2770 O.3     1  H101        0.0000
   1441 OA         33.1190   10.1700   34.2470 O.3     1  H101        0.0000
   1442 OA          2.7890   13.7600   34.1270 O.3     1  H101        0.0000
   1443 OA         18.1190   24.8700   34.2570 O.3     1  H101        0.0000
   1444 OA          2.8390   21.1800   34.2070 O.3     1  H101        0.0000
   1445 OA          2.7890   24.8400   34.1270 O.3     1  H101        0.0000
   1446 OA         13.9590   28.5900   34.2770 O.3     1  H101        0.0000
   1447 OA         14.2590   21.1800   34.2070 O.3     1  H101        0.0000
   1448 OA         14.2090   13.7600   34.1270 O.3     1  H101        0.0000
   1449 OA         14.2090   24.8400   34.1270 O.3     1  H101        0.0000
   1450 OA         14.2590   10.1000   34.2070 O.3     1  H101        0.0000
   1451 OA         10.5490   17.4200   34.1670 O.3     1  H101        0.0000
   1452 OA         25.3790   17.5100   34.2770 O.3     1  H101        0.0000
   1453 OA         33.2690   13.7600   34.2970 O.3     1  H101        0.0000
   1454 OA         25.6290   24.8400   34.1270 O.3     1  H101        0.0000
   1455 OA         18.0090   17.4900   34.3370 O.3     1  H101        0.0000
   1456 OA         10.4290   24.8400   34.2970 O.3     1  H101        0.0000
   1457 OA          0.9490   13.7400   40.7770 O.3     1  H101        0.0000
   1458 OA         12.3690   24.8200   40.7770 O.3     1  H101        0.0000
   1459 OA         23.7890    2.6600   40.7770 O.3     1  H101        0.0000
   1460 OA         12.3690   13.7400   40.7770 O.3     1  H101        0.0000
   1461 OA          0.9490   24.8200   40.7770 O.3     1  H101        0.0000
   1462 OA          0.9490    2.6600   40.7770 O.3     1  H101        0.0000
   1463 OA         12.3690    2.6600   40.7770 O.3     1  H101        0.0000
   1464 OA         23.7890   24.8200   40.7770 O.3     1  H101        0.0000
   1465 OA         14.2090    2.6800   34.1270 O.3     1  H101        0.0000
   1466 OA         23.7890   13.7400   40.7770 O.3     1  H101        0.0000
   1467 OA          8.5290   21.2000   40.8170 O.3     1  H101        0.0000
   1468 OA         33.3890    6.3400   34.1670 O.3     1  H101        0.0000
   1469 OA         31.3690   10.1200   40.8170 O.3     1  H101        0.0000
   1470 OA          8.5290   10.1200   40.8170 O.3     1  H101        0.0000
   1471 OA         19.9490   32.2800   40.8170 O.3     1  H101        0.0000
   1472 OA         31.3690   21.2000   40.8170 O.3     1  H101        0.0000
   1473 OA         19.9490   10.1200   40.8170 O.3     1  H101        0.0000
   1474 OA         31.3690   32.2800   40.8170 O.3     1  H101        0.0000
   1475 OA         18.2290   21.1000   34.1570 O.3     1  H101        0.0000
   1476 OA          8.5290   32.2800   40.8170 O.3     1  H101        0.0000
   1477 OA         14.2590   32.2600   34.2070 O.3     1  H101        0.0000
   1478 OA         19.9490   21.2000   40.8170 O.3     1  H101        0.0000
   1479 OA         25.3790    6.4300   34.2770 O.3     1  H101        0.0000
   1480 OA         25.6790   21.1800   34.2070 O.3     1  H101        0.0000
   1481 OA          1.0490   10.0300   40.8570 O.3     1  H101        0.0000
   1482 OA         12.4690   21.1100   40.8570 O.3     1  H101        0.0000
   1483 OA         23.8890   32.1900   40.8570 O.3     1  H101        0.0000
   1484 OA         21.6990   32.3300   34.2470 O.3     1  H101        0.0000
   1485 OA          1.0490   21.1100   40.8570 O.3     1  H101        0.0000
   1486 OA         12.4690   10.0300   40.8570 O.3     1  H101        0.0000
   1487 OA          1.0490   32.1900   40.8570 O.3     1  H101        0.0000
   1488 OA         10.4290   13.7600   34.2970 O.3     1  H101        0.0000
   1489 OA         12.4690   32.1900   40.8570 O.3     1  H101        0.0000
   1490 OA         23.8890   10.0300   40.8570 O.3     1  H101        0.0000
   1491 OA         23.8890   21.1100   40.8570 O.3     1  H101        0.0000
   1492 OA         33.3890   17.4200   34.1670 O.3     1  H101        0.0000
   1493 OA         21.8490    2.6800   34.2970 O.3     1  H101        0.0000
   1494 OA          8.6890   24.9300   40.7370 O.3     1  H101        0.0000
   1495 OA          8.6890   13.8500   40.7370 O.3     1  H101        0.0000
   1496 OA         31.5290   13.8500   40.7370 O.3     1  H101        0.0000
   1497 OA         20.1090    2.7700   40.7370 O.3     1  H101        0.0000
   1498 OA         31.5290   24.9300   40.7370 O.3     1  H101        0.0000
   1499 OA         31.5290    2.7700   40.7370 O.3     1  H101        0.0000
   1500 OA         20.1090   13.8500   40.7370 O.3     1  H101        0.0000
   1501 OA          8.6890    2.7700   40.7370 O.3     1  H101        0.0000
   1502 OA         12.3990   17.4600   40.6770 O.3     1  H101        0.0000
   1503 OA          0.9790    6.3800   40.6770 O.3     1  H101        0.0000
   1504 OA          0.9790   17.4600   40.6770 O.3     1  H101        0.0000
   1505 OA         23.8190   28.5400   40.6770 O.3     1  H101        0.0000
   1506 OA         20.1090   24.9300   40.7370 O.3     1  H101        0.0000
   1507 OA          0.9790   28.5400   40.6770 O.3     1  H101        0.0000
   1508 OA         12.3990    6.3800   40.6770 O.3     1  H101        0.0000
   1509 OA         33.1190   21.2500   34.2470 O.3     1  H101        0.0000
   1510 OA         23.8190    6.3800   40.6770 O.3     1  H101        0.0000
   1511 OA         12.3990   28.5400   40.6770 O.3     1  H101        0.0000
   1512 OA         10.2790   10.1700   34.2470 O.3     1  H101        0.0000
   1513 OA         23.8190   17.4600   40.6770 O.3     1  H101        0.0000
   1514 OA         21.9690   28.5000   34.1670 O.3     1  H101        0.0000
   1515 OA         33.2690   24.8400   34.2970 O.3     1  H101        0.0000
   1516 OA          8.6290   17.4800   40.6270 O.3     1  H101        0.0000
   1517 OA         31.4690    6.4000   40.6270 O.3     1  H101        0.0000
   1518 OA         31.4690   17.4800   40.6270 O.3     1  H101        0.0000
   1519 OA          8.6290    6.4000   40.6270 O.3     1  H101        0.0000
   1520 OA         20.0490    6.4000   40.6270 O.3     1  H101        0.0000
   1521 OA         20.0490   28.5600   40.6270 O.3     1  H101        0.0000
   1522 OA          8.6290   28.5600   40.6270 O.3     1  H101        0.0000
   1523 OA         31.4690   28.5600   40.6270 O.3     1  H101        0.0000
   1524 OA         10.5490    6.3400   34.1670 O.3     1  H101        0.0000
   1525 OA         25.6290   13.7600   34.1270 O.3     1  H101        0.0000
   1526 OA         21.9690    6.3400   34.1670 O.3     1  H101        0.0000
   1527 OA         20.0490   17.4800   40.6270 O.3     1  H101        0.0000
   1528 OA         21.6990   10.1700   34.2470 O.3     1  H101        0.0000
   1529 OA         21.8490   13.7600   34.2970 O.3     1  H101        0.0000
   1530 OA         33.2690    2.6800   34.2970 O.3     1  H101        0.0000
   1531 OA         25.6790   10.1000   34.2070 O.3     1  H101        0.0000
   1532 OA         33.3890   28.5000   34.1670 O.3     1  H101        0.0000
   1533 OA         10.5490   28.5000   34.1670 O.3     1  H101        0.0000
   1534 OA         10.4290    2.6800   34.2970 O.3     1  H101        0.0000
   1535 OA         21.8490   24.8400   34.2970 O.3     1  H101        0.0000
   1536 OA         21.9690   17.4200   34.1670 O.3     1  H101        0.0000
   1537 OA         33.1190   32.3300   34.2470 O.3     1  H101        0.0000
   1538 OA          4.9290   21.0900   40.7170 O.3     1  H101        0.0000
   1539 OA          4.8490   24.8700   40.6070 O.3     1  H101        0.0000
   1540 OA          4.8490   13.7900   40.6070 O.3     1  H101        0.0000
   1541 OA          4.9290   10.0100   40.7170 O.3     1  H101        0.0000
   1542 OA         27.7690   32.1700   40.7170 O.3     1  H101        0.0000
   1543 OA         27.6890    2.7100   40.6070 O.3     1  H101        0.0000
   1544 OA          4.8490    2.7100   40.6070 O.3     1  H101        0.0000
   1545 OA          4.9290   32.1700   40.7170 O.3     1  H101        0.0000
   1546 OA         16.3490   10.0100   40.7170 O.3     1  H101        0.0000
   1547 OA         27.6890   24.8700   40.6070 O.3     1  H101        0.0000
   1548 OA         16.2690   13.7900   40.6070 O.3     1  H101        0.0000
   1549 OA         16.2690    2.7100   40.6070 O.3     1  H101        0.0000
   1550 OA         16.3490   32.1700   40.7170 O.3     1  H101        0.0000
   1551 OA         27.7690   21.0900   40.7170 O.3     1  H101        0.0000
   1552 OA         16.2690   24.8700   40.6070 O.3     1  H101        0.0000
   1553 OA         27.6890   13.7900   40.6070 O.3     1  H101        0.0000
   1554 OA         16.3490   21.0900   40.7170 O.3     1  H101        0.0000
   1555 OA         27.7690   10.0100   40.7170 O.3     1  H101        0.0000
   1556 OA         10.2790   32.3300   34.2470 O.3     1  H101        0.0000
   1557 OA         21.6990   21.2500   34.2470 O.3     1  H101        0.0000
   1558 OA          4.7790   17.4500   40.6970 O.3     1  H101        0.0000
   1559 OA          4.7790    6.3700   40.6970 O.3     1  H101        0.0000
   1560 OA          4.7790   28.5300   40.6970 O.3     1  H101        0.0000
   1561 OA         27.6190   28.5300   40.6970 O.3     1  H101        0.0000
   1562 OA         16.1990    6.3700   40.6970 O.3     1  H101        0.0000
   1563 OA         16.1990   28.5300   40.6970 O.3     1  H101        0.0000
   1564 OA         27.6190   17.4500   40.6970 O.3     1  H101        0.0000
   1565 OA         27.6190    6.3700   40.6970 O.3     1  H101        0.0000
   1566 OA         16.1990   17.4500   40.6970 O.3     1  H101        0.0000
   1567 OA          6.5890   23.0200   35.8570 O.3     1  H101        0.0000
   1568 OA          6.5290   19.3500   35.8570 O.3     1  H101        0.0000
   1569 OA          6.5890   11.9400   35.8570 O.3     1  H101        0.0000
   1570 OA         18.0090    0.8600   35.8570 O.3     1  H101        0.0000
   1571 OA         29.4290   23.0200   35.8570 O.3     1  H101        0.0000
   1572 OA         25.5490   30.4600   35.8770 O.3     1  H101        0.0000
   1573 OA         18.0090   11.9400   35.8570 O.3     1  H101        0.0000
   1574 OA          6.4790   15.5900   35.8870 O.3     1  H101        0.0000
   1575 OA         29.4290    0.8600   35.8570 O.3     1  H101        0.0000
   1576 OA         29.4290   11.9400   35.8570 O.3     1  H101        0.0000
   1577 OA          6.4790   26.6700   35.8870 O.3     1  H101        0.0000
   1578 OA          6.5890    0.8600   35.8570 O.3     1  H101        0.0000
   1579 OA          2.7090   30.4600   35.8770 O.3     1  H101        0.0000
   1580 OA          6.5290    8.2700   35.8570 O.3     1  H101        0.0000
   1581 OA         17.8990    4.5100   35.8870 O.3     1  H101        0.0000
   1582 OA         17.9490    8.2700   35.8570 O.3     1  H101        0.0000
   1583 OA         29.3690   19.3500   35.8570 O.3     1  H101        0.0000
   1584 OA         17.9490   30.4300   35.8570 O.3     1  H101        0.0000
   1585 OA          6.4790    4.5100   35.8870 O.3     1  H101        0.0000
   1586 OA         29.3190   26.6700   35.8870 O.3     1  H101        0.0000
   1587 OA         29.3190   15.5900   35.8870 O.3     1  H101        0.0000
   1588 OA         25.6590    0.9600   35.7870 O.3     1  H101        0.0000
   1589 OA         29.3190    4.5100   35.8870 O.3     1  H101        0.0000
   1590 OA          2.7090    8.3000   35.8770 O.3     1  H101        0.0000
   1591 OA          2.7490    4.5400   35.7870 O.3     1  H101        0.0000
   1592 OA          2.7090   19.3800   35.8770 O.3     1  H101        0.0000
   1593 OA          2.7490   26.7000   35.7870 O.3     1  H101        0.0000
   1594 OA          2.7490   15.6200   35.7870 O.3     1  H101        0.0000
   1595 OA         29.3690   30.4300   35.8570 O.3     1  H101        0.0000
   1596 OA         29.3690    8.2700   35.8570 O.3     1  H101        0.0000
   1597 OA         10.1290   19.3500   35.8070 O.3     1  H101        0.0000
   1598 OA          6.5290   30.4300   35.8570 O.3     1  H101        0.0000
   1599 OA         25.5890   26.7000   35.7870 O.3     1  H101        0.0000
   1600 OA         10.5090   23.0200   35.8870 O.3     1  H101        0.0000
   1601 OA         17.8990   26.6700   35.8870 O.3     1  H101        0.0000
   1602 OA          2.8190    0.9600   35.7870 O.3     1  H101        0.0000
   1603 OA         14.1290   19.3800   35.8770 O.3     1  H101        0.0000
   1604 OA         17.8990   15.5900   35.8870 O.3     1  H101        0.0000
   1605 OA         14.1690   15.6200   35.7870 O.3     1  H101        0.0000
   1606 OA         33.3490   11.9400   35.8870 O.3     1  H101        0.0000
   1607 OA         14.1290    8.3000   35.8770 O.3     1  H101        0.0000
   1608 OA         14.1690   26.7000   35.7870 O.3     1  H101        0.0000
   1609 OA         32.9690    8.2700   35.8070 O.3     1  H101        0.0000
   1610 OA         25.5890    4.5400   35.7870 O.3     1  H101        0.0000
   1611 OA         14.1690    4.5400   35.7870 O.3     1  H101        0.0000
   1612 OA          2.8190   12.0400   35.7870 O.3     1  H101        0.0000
   1613 OA          2.8190   23.1200   35.7870 O.3     1  H101        0.0000
   1614 OA         18.0090   23.0200   35.8570 O.3     1  H101        0.0000
   1615 OA          0.8890   11.9600   39.2070 O.3     1  H101        0.0000
   1616 OA         14.1290   30.4600   35.8770 O.3     1  H101        0.0000
   1617 OA         12.3090   23.0400   39.2070 O.3     1  H101        0.0000
   1618 OA         23.7290    0.8800   39.2070 O.3     1  H101        0.0000
   1619 OA          8.3990   23.0100   39.1770 O.3     1  H101        0.0000
   1620 OA          0.8890   23.0400   39.2070 O.3     1  H101        0.0000
   1621 OA         12.3090   11.9600   39.2070 O.3     1  H101        0.0000
   1622 OA          0.8890    0.8800   39.2070 O.3     1  H101        0.0000
   1623 OA         14.2390   23.1200   35.7870 O.3     1  H101        0.0000
   1624 OA         31.2390   11.9300   39.1770 O.3     1  H101        0.0000
   1625 OA          8.3990   11.9300   39.1770 O.3     1  H101        0.0000
   1626 OA         19.8190    0.8500   39.1770 O.3     1  H101        0.0000
   1627 OA         25.5490   19.3800   35.8770 O.3     1  H101        0.0000
   1628 OA         31.2390   23.0100   39.1770 O.3     1  H101        0.0000
   1629 OA         12.3090    0.8800   39.2070 O.3     1  H101        0.0000
   1630 OA         23.7290   23.0400   39.2070 O.3     1  H101        0.0000
   1631 OA         23.7290   11.9600   39.2070 O.3     1  H101        0.0000
   1632 OA         14.2390   12.0400   35.7870 O.3     1  H101        0.0000
   1633 OA         19.8190   11.9300   39.1770 O.3     1  H101        0.0000
   1634 OA         31.2390    0.8500   39.1770 O.3     1  H101        0.0000
   1635 OA         25.5890   15.6200   35.7870 O.3     1  H101        0.0000
   1636 OA          8.3990    0.8500   39.1770 O.3     1  H101        0.0000
   1637 OA         19.8190   23.0100   39.1770 O.3     1  H101        0.0000
   1638 OA          0.7690   15.6400   39.3170 O.3     1  H101        0.0000
   1639 OA         12.1890   15.6400   39.3170 O.3     1  H101        0.0000
   1640 OA         10.4790   15.6500   35.7170 O.3     1  H101        0.0000
   1641 OA          0.7690    4.5600   39.3170 O.3     1  H101        0.0000
   1642 OA          0.7690   26.7200   39.3170 O.3     1  H101        0.0000
   1643 OA         12.1890   26.7200   39.3170 O.3     1  H101        0.0000
   1644 OA         23.6090    4.5600   39.3170 O.3     1  H101        0.0000
   1645 OA         23.6090   26.7200   39.3170 O.3     1  H101        0.0000
   1646 OA         33.3190   15.6500   35.7170 O.3     1  H101        0.0000
   1647 OA         12.1890    4.5600   39.3170 O.3     1  H101        0.0000
   1648 OA          8.6290   19.3500   39.0870 O.3     1  H101        0.0000
   1649 OA         21.9290    0.8600   35.8870 O.3     1  H101        0.0000
   1650 OA         23.6090   15.6400   39.3170 O.3     1  H101        0.0000
   1651 OA         31.4690    8.2700   39.0870 O.3     1  H101        0.0000
   1652 OA         31.4690   19.3500   39.0870 O.3     1  H101        0.0000
   1653 OA          8.6290    8.2700   39.0870 O.3     1  H101        0.0000
   1654 OA         21.5490   30.4300   35.8070 O.3     1  H101        0.0000
   1655 OA         20.0490   30.4300   39.0870 O.3     1  H101        0.0000
   1656 OA         20.0490    8.2700   39.0870 O.3     1  H101        0.0000
   1657 OA         25.6590   23.1200   35.7870 O.3     1  H101        0.0000
   1658 OA         14.2390    0.9600   35.7870 O.3     1  H101        0.0000
   1659 OA         17.9490   19.3500   35.8570 O.3     1  H101        0.0000
   1660 OA         31.4690   30.4300   39.0870 O.3     1  H101        0.0000
   1661 OA          8.6290   30.4300   39.0870 O.3     1  H101        0.0000
   1662 OA         10.5090   11.9400   35.8870 O.3     1  H101        0.0000
   1663 OA         32.9690   19.3500   35.8070 O.3     1  H101        0.0000
   1664 OA         20.0490   19.3500   39.0870 O.3     1  H101        0.0000
   1665 OA         33.3490   23.0200   35.8870 O.3     1  H101        0.0000
   1666 OA         21.8990    4.5700   35.7170 O.3     1  H101        0.0000
   1667 OA         33.3190    4.5700   35.7170 O.3     1  H101        0.0000
   1668 OA         10.4790   26.7300   35.7170 O.3     1  H101        0.0000
   1669 OA         10.1290    8.2700   35.8070 O.3     1  H101        0.0000
   1670 OA         12.1690   19.2700   39.2070 O.3     1  H101        0.0000
   1671 OA          0.7490    8.1900   39.2070 O.3     1  H101        0.0000
   1672 OA         23.5890   30.3500   39.2070 O.3     1  H101        0.0000
   1673 OA          0.7490   19.2700   39.2070 O.3     1  H101        0.0000
   1674 OA         12.1690    8.1900   39.2070 O.3     1  H101        0.0000
   1675 OA          0.7490   30.3500   39.2070 O.3     1  H101        0.0000
   1676 OA         12.1690   30.3500   39.2070 O.3     1  H101        0.0000
   1677 OA         23.5890    8.1900   39.2070 O.3     1  H101        0.0000
   1678 OA         23.5890   19.2700   39.2070 O.3     1  H101        0.0000
   1679 OA         33.3190   26.7300   35.7170 O.3     1  H101        0.0000
   1680 OA         25.5490    8.3000   35.8770 O.3     1  H101        0.0000
   1681 OA          8.4090   15.6700   39.1070 O.3     1  H101        0.0000
   1682 OA          8.4090   26.7500   39.1070 O.3     1  H101        0.0000
   1683 OA         31.2490   15.6700   39.1070 O.3     1  H101        0.0000
   1684 OA         21.5490    8.2700   35.8070 O.3     1  H101        0.0000
   1685 OA         19.8290    4.5900   39.1070 O.3     1  H101        0.0000
   1686 OA         31.2490    4.5900   39.1070 O.3     1  H101        0.0000
   1687 OA         31.2490   26.7500   39.1070 O.3     1  H101        0.0000
   1688 OA         21.8990   26.7300   35.7170 O.3     1  H101        0.0000
   1689 OA          8.4090    4.5900   39.1070 O.3     1  H101        0.0000
   1690 OA         10.4790    4.5700   35.7170 O.3     1  H101        0.0000
   1691 OA         19.8290   26.7500   39.1070 O.3     1  H101        0.0000
   1692 OA         19.8290   15.6700   39.1070 O.3     1  H101        0.0000
   1693 OA         21.9290   11.9400   35.8870 O.3     1  H101        0.0000
   1694 OA         21.8990   15.6500   35.7170 O.3     1  H101        0.0000
   1695 OA          4.6190   22.9800   39.1770 O.3     1  H101        0.0000
   1696 OA          4.6190   11.9000   39.1770 O.3     1  H101        0.0000
   1697 OA         27.4590    0.8200   39.1770 O.3     1  H101        0.0000
   1698 OA          4.6190    0.8200   39.1770 O.3     1  H101        0.0000
   1699 OA         16.0390   11.9000   39.1770 O.3     1  H101        0.0000
   1700 OA         16.0390    0.8200   39.1770 O.3     1  H101        0.0000
   1701 OA         25.6590   12.0400   35.7870 O.3     1  H101        0.0000
   1702 OA         27.4590   22.9800   39.1770 O.3     1  H101        0.0000
   1703 OA         16.0390   22.9800   39.1770 O.3     1  H101        0.0000
   1704 OA         27.4590   11.9000   39.1770 O.3     1  H101        0.0000
   1705 OA         33.3490    0.8600   35.8870 O.3     1  H101        0.0000
   1706 OA         32.9690   30.4300   35.8070 O.3     1  H101        0.0000
   1707 OA         10.1290   30.4300   35.8070 O.3     1  H101        0.0000
   1708 OA         10.5090    0.8600   35.8870 O.3     1  H101        0.0000
   1709 OA         21.9290   23.0200   35.8870 O.3     1  H101        0.0000
   1710 OA          4.5590   19.3400   39.0870 O.3     1  H101        0.0000
   1711 OA          4.6090   15.6400   39.0170 O.3     1  H101        0.0000
   1712 OA          4.6090   26.7200   39.0170 O.3     1  H101        0.0000
   1713 OA          4.5590    8.2600   39.0870 O.3     1  H101        0.0000
   1714 OA         27.3990   30.4200   39.0870 O.3     1  H101        0.0000
   1715 OA         21.5490   19.3500   35.8070 O.3     1  H101        0.0000
   1716 OA          4.6090    4.5600   39.0170 O.3     1  H101        0.0000
   1717 OA          4.5590   30.4200   39.0870 O.3     1  H101        0.0000
   1718 OA         27.4490   26.7200   39.0170 O.3     1  H101        0.0000
   1719 OA         15.9790    8.2600   39.0870 O.3     1  H101        0.0000
   1720 OA         16.0290    4.5600   39.0170 O.3     1  H101        0.0000
   1721 OA         27.4490    4.5600   39.0170 O.3     1  H101        0.0000
   1722 OA         15.9790   30.4200   39.0870 O.3     1  H101        0.0000
   1723 OA         16.0290   15.6400   39.0170 O.3     1  H101        0.0000
   1724 OA         27.3990   19.3400   39.0870 O.3     1  H101        0.0000
   1725 OA         16.0290   26.7200   39.0170 O.3     1  H101        0.0000
   1726 OA         27.4490   15.6400   39.0170 O.3     1  H101        0.0000
   1727 OA         15.9790   19.3400   39.0870 O.3     1  H101        0.0000
   1728 OA         27.3990    8.2600   39.0870 O.3     1  H101        0.0000
   1729 OA          8.4690   21.2000   36.7770 O.3     1  H101        0.0000
   1730 OA          8.5590   24.8700   36.5670 O.3     1  H101        0.0000
   1731 OA          4.6390   21.1900   36.6570 O.3     1  H101        0.0000
   1732 OA          8.3890   17.5200   36.6670 O.3     1  H101        0.0000
   1733 OA         31.3090   10.1200   36.7770 O.3     1  H101        0.0000
   1734 OA          6.5390   21.2700   38.2970 O.3     1  H101        0.0000
   1735 OA          0.8090    9.9700   36.7070 O.3     1  H101        0.0000
   1736 OA          8.5590   13.7900   36.5670 O.3     1  H101        0.0000
   1737 OA         19.8890   32.2800   36.7770 O.3     1  H101        0.0000
   1738 OA         10.3190   21.2400   38.3070 O.3     1  H101        0.0000
   1739 OA         12.2290   21.0500   36.7070 O.3     1  H101        0.0000
   1740 OA          8.4690   10.1200   36.7770 O.3     1  H101        0.0000
   1741 OA          4.7390   24.8800   36.7270 O.3     1  H101        0.0000
   1742 OA         31.3990   13.7900   36.5670 O.3     1  H101        0.0000
   1743 OA          0.9090   13.8300   36.7870 O.3     1  H101        0.0000
   1744 OA         23.6490   32.1300   36.7070 O.3     1  H101        0.0000
   1745 OA         31.3090   21.2000   36.7770 O.3     1  H101        0.0000
   1746 OA         19.9790    2.7100   36.5670 O.3     1  H101        0.0000
   1747 OA          4.7390   13.8000   36.7270 O.3     1  H101        0.0000
   1748 OA         27.4790   32.2700   36.6570 O.3     1  H101        0.0000
   1749 OA         33.1590   10.1600   38.3070 O.3     1  H101        0.0000
   1750 OA          4.5890   17.5600   36.6370 O.3     1  H101        0.0000
   1751 OA          4.6390   10.1100   36.6570 O.3     1  H101        0.0000
   1752 OA         12.3290   24.9100   36.7870 O.3     1  H101        0.0000
   1753 OA         23.7490    2.7500   36.7870 O.3     1  H101        0.0000
   1754 OA         12.2590   17.6000   36.6570 O.3     1  H101        0.0000
   1755 OA          6.6490   24.9000   38.3170 O.3     1  H101        0.0000
   1756 OA          0.8390    6.5200   36.6570 O.3     1  H101        0.0000
   1757 OA         31.3990   24.8700   36.5670 O.3     1  H101        0.0000
   1758 OA         33.2990   13.8500   38.2870 O.3     1  H101        0.0000
   1759 OA         10.4590   24.9300   38.2870 O.3     1  H101        0.0000
   1760 OA         12.3290   13.8300   36.7870 O.3     1  H101        0.0000
   1761 OA         27.5790    2.7200   36.7270 O.3     1  H101        0.0000
   1762 OA         19.8890   10.1200   36.7770 O.3     1  H101        0.0000
   1763 OA          4.7390    2.7200   36.7270 O.3     1  H101        0.0000
   1764 OA          0.8390   17.6000   36.6570 O.3     1  H101        0.0000
   1765 OA         31.2290    6.4400   36.6670 O.3     1  H101        0.0000
   1766 OA          4.6390   32.2700   36.6570 O.3     1  H101        0.0000
   1767 OA          0.9090   24.9100   36.7870 O.3     1  H101        0.0000
   1768 OA         23.6790   28.6800   36.6570 O.3     1  H101        0.0000
   1769 OA          0.8090   21.0500   36.7070 O.3     1  H101        0.0000
   1770 OA          6.5390   10.1900   38.2970 O.3     1  H101        0.0000
   1771 OA         31.2290   17.5200   36.6670 O.3     1  H101        0.0000
   1772 OA          6.6490   13.8200   38.3170 O.3     1  H101        0.0000
   1773 OA         16.0590   10.1100   36.6570 O.3     1  H101        0.0000
   1774 OA         21.7390   32.3200   38.3070 O.3     1  H101        0.0000
   1775 OA         10.4590   13.8500   38.2870 O.3     1  H101        0.0000
   1776 OA          0.9090    2.7500   36.7870 O.3     1  H101        0.0000
   1777 OA         10.3090   17.4800   38.1970 O.3     1  H101        0.0000
   1778 OA          4.5890    6.4800   36.6370 O.3     1  H101        0.0000
   1779 OA         31.3990    2.7100   36.5670 O.3     1  H101        0.0000
   1780 OA         27.4290   28.6400   36.6370 O.3     1  H101        0.0000
   1781 OA         16.1590   13.8000   36.7270 O.3     1  H101        0.0000
   1782 OA         17.9590   32.3500   38.2970 O.3     1  H101        0.0000
   1783 OA         27.5790   24.8800   36.7270 O.3     1  H101        0.0000
   1784 OA         12.2290    9.9700   36.7070 O.3     1  H101        0.0000
   1785 OA         25.5090   32.2400   38.2670 O.3     1  H101        0.0000
   1786 OA          4.5890   28.6400   36.6370 O.3     1  H101        0.0000
   1787 OA         16.1590    2.7200   36.7270 O.3     1  H101        0.0000
   1788 OA         21.8790    2.7700   38.2870 O.3     1  H101        0.0000
   1789 OA          8.3890    6.4400   36.6670 O.3     1  H101        0.0000
   1790 OA         19.9790   13.7900   36.5670 O.3     1  H101        0.0000
   1791 OA         29.3790   21.2700   38.2970 O.3     1  H101        0.0000
   1792 OA          6.4590   17.6600   38.2570 O.3     1  H101        0.0000
   1793 OA         17.9590   10.1900   38.2970 O.3     1  H101        0.0000
   1794 OA         19.8090    6.4400   36.6670 O.3     1  H101        0.0000
   1795 OA         19.8090   28.6000   36.6670 O.3     1  H101        0.0000
   1796 OA         33.1590   21.2400   38.3070 O.3     1  H101        0.0000
   1797 OA         10.3190   10.1600   38.3070 O.3     1  H101        0.0000
   1798 OA         16.0590   32.2700   36.6570 O.3     1  H101        0.0000
   1799 OA         18.0690    2.7400   38.3170 O.3     1  H101        0.0000
   1800 OA          2.8190   13.8000   38.3370 O.3     1  H101        0.0000
   1801 OA         29.3790   32.3500   38.2970 O.3     1  H101        0.0000
   1802 OA         25.6590    2.7200   38.3370 O.3     1  H101        0.0000
   1803 OA         31.3090   32.2800   36.7770 O.3     1  H101        0.0000
   1804 OA         27.4790   21.1900   36.6570 O.3     1  H101        0.0000
   1805 OA         29.4890   24.9000   38.3170 O.3     1  H101        0.0000
   1806 OA         29.3790   10.1900   38.2970 O.3     1  H101        0.0000
   1807 OA         33.2990   24.9300   38.2870 O.3     1  H101        0.0000
   1808 OA         12.2590    6.5200   36.6570 O.3     1  H101        0.0000
   1809 OA          8.5590    2.7100   36.5670 O.3     1  H101        0.0000
   1810 OA         16.0090    6.4800   36.6370 O.3     1  H101        0.0000
   1811 OA          2.8190   24.8800   38.3370 O.3     1  H101        0.0000
   1812 OA          0.8390   28.6800   36.6570 O.3     1  H101        0.0000
   1813 OA          2.8190    2.7200   38.3370 O.3     1  H101        0.0000
   1814 OA         33.1490    6.4000   38.1970 O.3     1  H101        0.0000
   1815 OA          2.6690   10.0800   38.2670 O.3     1  H101        0.0000
   1816 OA         29.4890    2.7400   38.3170 O.3     1  H101        0.0000
   1817 OA         29.4890   13.8200   38.3170 O.3     1  H101        0.0000
   1818 OA          6.5390   32.3500   38.2970 O.3     1  H101        0.0000
   1819 OA          2.6690   21.1600   38.2670 O.3     1  H101        0.0000
   1820 OA          6.6490    2.7400   38.3170 O.3     1  H101        0.0000
   1821 OA         18.0690   13.8200   38.3170 O.3     1  H101        0.0000
   1822 OA          0.8090   32.1300   36.7070 O.3     1  H101        0.0000
   1823 OA          2.6690   32.2400   38.2670 O.3     1  H101        0.0000
   1824 OA          8.3890   28.6000   36.6670 O.3     1  H101        0.0000
   1825 OA         16.1590   24.8800   36.7270 O.3     1  H101        0.0000
   1826 OA         31.2290   28.6000   36.6670 O.3     1  H101        0.0000
   1827 OA         33.1490   17.4800   38.1970 O.3     1  H101        0.0000
   1828 OA         14.2390   13.8000   38.3370 O.3     1  H101        0.0000
   1829 OA          8.4690   32.2800   36.7770 O.3     1  H101        0.0000
   1830 OA         16.0090   28.6400   36.6370 O.3     1  H101        0.0000
   1831 OA         14.2390   24.8800   38.3370 O.3     1  H101        0.0000
   1832 OA         33.2990    2.7700   38.2870 O.3     1  H101        0.0000
   1833 OA         25.4790   28.3700   38.1870 O.3     1  H101        0.0000
   1834 OA         27.5790   13.8000   36.7270 O.3     1  H101        0.0000
   1835 OA         27.4290   17.5600   36.6370 O.3     1  H101        0.0000
   1836 OA         21.7390   10.1600   38.3070 O.3     1  H101        0.0000
   1837 OA          2.6390   17.2900   38.1870 O.3     1  H101        0.0000
   1838 OA         12.3290    2.7500   36.7870 O.3     1  H101        0.0000
   1839 OA         14.0890   21.1600   38.2670 O.3     1  H101        0.0000
   1840 OA         23.7490   24.9100   36.7870 O.3     1  H101        0.0000
   1841 OA          2.6390    6.2100   38.1870 O.3     1  H101        0.0000
   1842 OA         21.7290   28.5600   38.1970 O.3     1  H101        0.0000
   1843 OA         23.6790    6.5200   36.6570 O.3     1  H101        0.0000
   1844 OA         14.0890   10.0800   38.2670 O.3     1  H101        0.0000
   1845 OA         21.8790   13.8500   38.2870 O.3     1  H101        0.0000
   1846 OA         12.2590   28.6800   36.6570 O.3     1  H101        0.0000
   1847 OA          2.6390   28.3700   38.1870 O.3     1  H101        0.0000
   1848 OA         25.6590   24.8800   38.3370 O.3     1  H101        0.0000
   1849 OA         16.0590   21.1900   36.6570 O.3     1  H101        0.0000
   1850 OA          6.4590    6.5800   38.2570 O.3     1  H101        0.0000
   1851 OA         19.9790   24.8700   36.5670 O.3     1  H101        0.0000
   1852 OA         16.0090   17.5600   36.6370 O.3     1  H101        0.0000
   1853 OA         14.2390    2.7200   38.3370 O.3     1  H101        0.0000
   1854 OA         10.3090    6.4000   38.1970 O.3     1  H101        0.0000
   1855 OA         27.4290    6.4800   36.6370 O.3     1  H101        0.0000
   1856 OA         17.8790    6.5800   38.2570 O.3     1  H101        0.0000
   1857 OA          6.4590   28.7400   38.2570 O.3     1  H101        0.0000
   1858 OA         21.7290    6.4000   38.1970 O.3     1  H101        0.0000
   1859 OA         29.2990   17.6600   38.2570 O.3     1  H101        0.0000
   1860 OA         10.4590    2.7700   38.2870 O.3     1  H101        0.0000
   1861 OA         23.7490   13.8300   36.7870 O.3     1  H101        0.0000
   1862 OA         18.0690   24.9000   38.3170 O.3     1  H101        0.0000
   1863 OA         14.0590   17.2900   38.1870 O.3     1  H101        0.0000
   1864 OA         29.2990   28.7400   38.2570 O.3     1  H101        0.0000
   1865 OA         33.1590   32.3200   38.3070 O.3     1  H101        0.0000
   1866 OA         27.4790   10.1100   36.6570 O.3     1  H101        0.0000
   1867 OA         29.2990    6.5800   38.2570 O.3     1  H101        0.0000
   1868 OA         17.8790   28.7400   38.2570 O.3     1  H101        0.0000
   1869 OA         21.8790   24.9300   38.2870 O.3     1  H101        0.0000
   1870 OA         14.0590    6.2100   38.1870 O.3     1  H101        0.0000
   1871 OA         14.0890   32.2400   38.2670 O.3     1  H101        0.0000
   1872 OA         33.1490   28.5600   38.1970 O.3     1  H101        0.0000
   1873 OA         17.9590   21.2700   38.2970 O.3     1  H101        0.0000
   1874 OA         10.3090   28.5600   38.1970 O.3     1  H101        0.0000
   1875 OA         23.6790   17.6000   36.6570 O.3     1  H101        0.0000
   1876 OA         25.5090   21.1600   38.2670 O.3     1  H101        0.0000
   1877 OA         14.0590   28.3700   38.1870 O.3     1  H101        0.0000
   1878 OA         12.2290   32.1300   36.7070 O.3     1  H101        0.0000
   1879 OA         10.3190   32.3200   38.3070 O.3     1  H101        0.0000
   1880 OA         23.6490    9.9700   36.7070 O.3     1  H101        0.0000
   1881 OA         19.8090   17.5200   36.6670 O.3     1  H101        0.0000
   1882 OA         25.6590   13.8000   38.3370 O.3     1  H101        0.0000
   1883 OA         19.8890   21.2000   36.7770 O.3     1  H101        0.0000
   1884 OA         25.4790   17.2900   38.1870 O.3     1  H101        0.0000
   1885 OA         23.6490   21.0500   36.7070 O.3     1  H101        0.0000
   1886 OA         25.4790    6.2100   38.1870 O.3     1  H101        0.0000
   1887 OA         17.8790   17.6600   38.2570 O.3     1  H101        0.0000
   1888 OA         21.7390   21.2400   38.3070 O.3     1  H101        0.0000
   1889 OA         21.7290   17.4800   38.1970 O.3     1  H101        0.0000
   1890 OA         25.5090   10.0800   38.2670 O.3     1  H101        0.0000
   1891 OB         25.4490   32.6900   28.4870 O.3     1  H101        0.0000
   1892 OB         10.2990   21.0100   28.4370 O.3     1  H101        0.0000
   1893 OB         33.1390    9.9300   28.4370 O.3     1  H101        0.0000
   1894 OB          2.6090   32.6900   28.4870 O.3     1  H101        0.0000
   1895 OB          6.4690   17.5600   28.4270 O.3     1  H101        0.0000
   1896 OB          2.6090   10.5300   28.4870 O.3     1  H101        0.0000
   1897 OB          6.4690    6.4800   28.4270 O.3     1  H101        0.0000
   1898 OB         17.8890    6.4800   28.4270 O.3     1  H101        0.0000
   1899 OB         14.0290   21.6100   28.4870 O.3     1  H101        0.0000
   1900 OB         29.3090   17.5600   28.4270 O.3     1  H101        0.0000
   1901 OB         17.8890   28.6400   28.4270 O.3     1  H101        0.0000
   1902 OB          6.4690   28.6400   28.4270 O.3     1  H101        0.0000
   1903 OB         25.4390    2.4400   28.2570 O.3     1  H101        0.0000
   1904 OB         29.3090   28.6400   28.4270 O.3     1  H101        0.0000
   1905 OB         29.3090    6.4800   28.4270 O.3     1  H101        0.0000
   1906 OB          2.5990    2.4400   28.2570 O.3     1  H101        0.0000
   1907 OB          2.5990   13.5200   28.2570 O.3     1  H101        0.0000
   1908 OB         14.0190   24.6000   28.2570 O.3     1  H101        0.0000
   1909 OB          2.5990   24.6000   28.2570 O.3     1  H101        0.0000
   1910 OB          2.6090   21.6100   28.4870 O.3     1  H101        0.0000
   1911 OB         14.0190   13.5200   28.2570 O.3     1  H101        0.0000
   1912 OB         14.0290   10.5300   28.4870 O.3     1  H101        0.0000
   1913 OB         17.8890   17.5600   28.4270 O.3     1  H101        0.0000
   1914 OB         21.7190   32.0900   28.4370 O.3     1  H101        0.0000
   1915 OB         33.1290   13.8000   28.2670 O.3     1  H101        0.0000
   1916 OB         25.4390   24.6000   28.2570 O.3     1  H101        0.0000
   1917 OB         10.1990   17.3700   28.5570 O.3     1  H101        0.0000
   1918 OB         14.0190    2.4400   28.2570 O.3     1  H101        0.0000
   1919 OB         10.2890   24.8800   28.2670 O.3     1  H101        0.0000
   1920 OB          1.0590   10.0000   46.5570 O.3     1  H101        0.0000
   1921 OB          1.0590   21.0800   46.5570 O.3     1  H101        0.0000
   1922 OB         12.4790   21.0800   46.5570 O.3     1  H101        0.0000
   1923 OB         23.8990   32.1600   46.5570 O.3     1  H101        0.0000
   1924 OB         12.4790   10.0000   46.5570 O.3     1  H101        0.0000
   1925 OB          1.0590   32.1600   46.5570 O.3     1  H101        0.0000
   1926 OB         12.4790   32.1600   46.5570 O.3     1  H101        0.0000
   1927 OB         23.8990   10.0000   46.5570 O.3     1  H101        0.0000
   1928 OB         23.8990   21.0800   46.5570 O.3     1  H101        0.0000
   1929 OB         33.0390    6.2900   28.5570 O.3     1  H101        0.0000
   1930 OB          8.6090   13.8600   46.5770 O.3     1  H101        0.0000
   1931 OB          8.6090   24.9400   46.5770 O.3     1  H101        0.0000
   1932 OB         31.4490   13.8600   46.5770 O.3     1  H101        0.0000
   1933 OB         20.0290    2.7800   46.5770 O.3     1  H101        0.0000
   1934 OB         31.4490   24.9400   46.5770 O.3     1  H101        0.0000
   1935 OB         31.4490    2.7800   46.5770 O.3     1  H101        0.0000
   1936 OB          8.6090    2.7800   46.5770 O.3     1  H101        0.0000
   1937 OB         20.0290   13.8600   46.5770 O.3     1  H101        0.0000
   1938 OB         20.0290   24.9400   46.5770 O.3     1  H101        0.0000
   1939 OB         21.7090    2.7200   28.2670 O.3     1  H101        0.0000
   1940 OB         10.2890   13.8000   28.2670 O.3     1  H101        0.0000
   1941 OB         33.0390   17.3700   28.5570 O.3     1  H101        0.0000
   1942 OB         33.1390   21.0100   28.4370 O.3     1  H101        0.0000
   1943 OB         10.2990    9.9300   28.4370 O.3     1  H101        0.0000
   1944 OB         21.6190   28.4500   28.5570 O.3     1  H101        0.0000
   1945 OB         33.1290   24.8800   28.2670 O.3     1  H101        0.0000
   1946 OB         25.4390   13.5200   28.2570 O.3     1  H101        0.0000
   1947 OB         10.1990    6.2900   28.5570 O.3     1  H101        0.0000
   1948 OB         21.6190    6.2900   28.5570 O.3     1  H101        0.0000
   1949 OB         14.0290   32.6900   28.4870 O.3     1  H101        0.0000
   1950 OB         25.4490   21.6100   28.4870 O.3     1  H101        0.0000
   1951 OB         21.7090   13.8000   28.2670 O.3     1  H101        0.0000
   1952 OB         33.1290    2.7200   28.2670 O.3     1  H101        0.0000
   1953 OB         33.0390   28.4500   28.5570 O.3     1  H101        0.0000
   1954 OB         10.1990   28.4500   28.5570 O.3     1  H101        0.0000
   1955 OB         10.2890    2.7200   28.2670 O.3     1  H101        0.0000
   1956 OB         21.7090   24.8800   28.2670 O.3     1  H101        0.0000
   1957 OB         21.6190   17.3700   28.5570 O.3     1  H101        0.0000
   1958 OB         21.7190    9.9300   28.4370 O.3     1  H101        0.0000
   1959 OB          4.9590   13.6700   46.5470 O.3     1  H101        0.0000
   1960 OB          4.9590   24.7500   46.5470 O.3     1  H101        0.0000
   1961 OB         27.7990    2.5900   46.5470 O.3     1  H101        0.0000
   1962 OB          4.9590    2.5900   46.5470 O.3     1  H101        0.0000
   1963 OB         16.3790    2.5900   46.5470 O.3     1  H101        0.0000
   1964 OB         27.7990   24.7500   46.5470 O.3     1  H101        0.0000
   1965 OB         16.3790   13.6700   46.5470 O.3     1  H101        0.0000
   1966 OB         16.3790   24.7500   46.5470 O.3     1  H101        0.0000
   1967 OB         27.7990   13.6700   46.5470 O.3     1  H101        0.0000
   1968 OB          4.8390   21.2700   46.5870 O.3     1  H101        0.0000
   1969 OB          4.8390   10.1900   46.5870 O.3     1  H101        0.0000
   1970 OB         27.6790   32.3500   46.5870 O.3     1  H101        0.0000
   1971 OB         16.2590   10.1900   46.5870 O.3     1  H101        0.0000
   1972 OB          4.8390   32.3500   46.5870 O.3     1  H101        0.0000
   1973 OB         16.2590   32.3500   46.5870 O.3     1  H101        0.0000
   1974 OB         16.2590   21.2700   46.5870 O.3     1  H101        0.0000
   1975 OB         27.6790   10.1900   46.5870 O.3     1  H101        0.0000
   1976 OB         27.6790   21.2700   46.5870 O.3     1  H101        0.0000
   1977 OB          8.6590   17.3000   46.5470 O.3     1  H101        0.0000
   1978 OB         31.4990   17.3000   46.5470 O.3     1  H101        0.0000
   1979 OB         31.4990    6.2200   46.5470 O.3     1  H101        0.0000
   1980 OB          8.6590    6.2200   46.5470 O.3     1  H101        0.0000
   1981 OB          8.6590   28.3800   46.5470 O.3     1  H101        0.0000
   1982 OB         31.4990   28.3800   46.5470 O.3     1  H101        0.0000
   1983 OB         20.0790    6.2200   46.5470 O.3     1  H101        0.0000
   1984 OB         20.0790   28.3800   46.5470 O.3     1  H101        0.0000
   1985 OB         20.0790   17.3000   46.5470 O.3     1  H101        0.0000
   1986 OB         25.4490   10.5300   28.4870 O.3     1  H101        0.0000
   1987 OB         33.1390   32.0900   28.4370 O.3     1  H101        0.0000
   1988 OB          4.7890   17.4200   46.3070 O.3     1  H101        0.0000
   1989 OB          4.7890    6.3400   46.3070 O.3     1  H101        0.0000
   1990 OB          4.7890   28.5000   46.3070 O.3     1  H101        0.0000
   1991 OB         27.6290   28.5000   46.3070 O.3     1  H101        0.0000
   1992 OB         16.2090    6.3400   46.3070 O.3     1  H101        0.0000
   1993 OB         27.6290    6.3400   46.3070 O.3     1  H101        0.0000
   1994 OB         16.2090   28.5000   46.3070 O.3     1  H101        0.0000
   1995 OB         16.2090   17.4200   46.3070 O.3     1  H101        0.0000
   1996 OB         27.6290   17.4200   46.3070 O.3     1  H101        0.0000
   1997 OB         10.2990   32.0900   28.4370 O.3     1  H101        0.0000
   1998 OB         21.7190   21.0100   28.4370 O.3     1  H101        0.0000
   1999 HA         28.4390   30.5700   27.2270 H       1  H101        0.0000
   2000 HA         26.4790   32.5700   26.2470 H       1  H101        0.0000
   2001 HA          4.8890   32.7100   26.2670 H       1  H101        0.0000
   2002 HA          6.0890   31.0400   27.3170 H       1  H101        0.0000
   2003 HA          8.0590   21.2700   26.4370 H       1  H101        0.0000
   2004 HA          7.0890   20.9600   26.8970 H       1  H101        0.0000
   2005 HA         30.8590   10.1600   26.4370 H       1  H101        0.0000
   2006 HA         29.9790    9.5300   26.9070 H       1  H101        0.0000
   2007 HA          3.0190   28.8300   27.0070 H       1  H101        0.0000
   2008 HA         25.8590   28.8300   27.0070 H       1  H101        0.0000
   2009 HA          5.9590    2.7800   27.0570 H       1  H101        0.0000
   2010 HA         28.7990    2.7800   27.0570 H       1  H101        0.0000
   2011 HA          3.0190   17.7500   27.0070 H       1  H101        0.0000
   2012 HA          3.0190    6.6700   27.0070 H       1  H101        0.0000
   2013 HA          4.7890    9.6300   26.2470 H       1  H101        0.0000
   2014 HA         14.4390    6.6700   27.0070 H       1  H101        0.0000
   2015 HA          5.9590   24.9400   27.0570 H       1  H101        0.0000
   2016 HA         14.4390   28.8300   27.0070 H       1  H101        0.0000
   2017 HA         16.6090   22.5800   26.7870 H       1  H101        0.0000
   2018 HA          5.9590   13.8600   27.0570 H       1  H101        0.0000
   2019 HA          4.3790   19.5700   26.6670 H       1  H101        0.0000
   2020 HA         28.7990   24.9400   27.0570 H       1  H101        0.0000
   2021 HA         17.3790   24.9400   27.0570 H       1  H101        0.0000
   2022 HA         15.9790    8.3700   26.7870 H       1  H101        0.0000
   2023 HA         17.3790   13.8600   27.0570 H       1  H101        0.0000
   2024 HA         25.8590   17.7500   27.0070 H       1  H101        0.0000
   2025 HA         14.4390   17.7500   27.0070 H       1  H101        0.0000
   2026 HA         17.3790    2.7800   27.0570 H       1  H101        0.0000
   2027 HA         15.7590   30.7600   26.5970 H       1  H101        0.0000
   2028 HA         26.9590   20.1800   26.3370 H       1  H101        0.0000
   2029 HA          9.1990   21.7000   48.2670 H       1  H101        0.0000
   2030 HA         32.0390   10.6200   48.2670 H       1  H101        0.0000
   2031 HA         32.0390   21.7000   48.2670 H       1  H101        0.0000
   2032 HA         20.6190   32.7800   48.2670 H       1  H101        0.0000
   2033 HA          9.1990   10.6200   48.2670 H       1  H101        0.0000
   2034 HA         32.0390   32.7800   48.2670 H       1  H101        0.0000
   2035 HA          9.1990   32.7800   48.2670 H       1  H101        0.0000
   2036 HA         20.6190   10.6200   48.2670 H       1  H101        0.0000
   2037 HA         20.6190   21.7000   48.2670 H       1  H101        0.0000
   2038 HA         11.0090   12.7600   48.3570 H       1  H101        0.0000
   2039 HA         11.0090   23.8400   48.3570 H       1  H101        0.0000
   2040 HA         33.8490   12.7600   48.3570 H       1  H101        0.0000
   2041 HA         22.4290    1.6800   48.3570 H       1  H101        0.0000
   2042 HA         33.8490   23.8400   48.3570 H       1  H101        0.0000
   2043 HA         33.8490    1.6800   48.3570 H       1  H101        0.0000
   2044 HA         11.0090    1.6800   48.3570 H       1  H101        0.0000
   2045 HA         22.4290   23.8400   48.3570 H       1  H101        0.0000
   2046 HA         22.4290   12.7600   48.3570 H       1  H101        0.0000
   2047 HA         30.2990   12.2400   27.2070 H       1  H101        0.0000
   2048 HA          7.4590   23.3200   27.2070 H       1  H101        0.0000
   2049 HA         25.8590    6.6700   27.0070 H       1  H101        0.0000
   2050 HA         28.7990   13.8600   27.0570 H       1  H101        0.0000
   2051 HA         17.6190   31.9300   28.0870 H       1  H101        0.0000
   2052 HA          7.4590   12.2400   27.2070 H       1  H101        0.0000
   2053 HA         18.8790    1.1600   27.2070 H       1  H101        0.0000
   2054 HA         10.1290   11.3000   27.2470 H       1  H101        0.0000
   2055 HA         31.0390   20.3800   26.4570 H       1  H101        0.0000
   2056 HA         30.2990   23.3200   27.2070 H       1  H101        0.0000
   2057 HA         18.8790   12.2400   27.2070 H       1  H101        0.0000
   2058 HA         18.8190    8.9000   26.9770 H       1  H101        0.0000
   2059 HA         12.3990   18.7200   26.8270 H       1  H101        0.0000
   2060 HA          0.9790    7.6400   26.8270 H       1  H101        0.0000
   2061 HA         23.8190   29.8000   26.8270 H       1  H101        0.0000
   2062 HA         30.2990    1.1600   27.2070 H       1  H101        0.0000
   2063 HA          0.9790   18.7200   26.8270 H       1  H101        0.0000
   2064 HA         12.3990    7.6400   26.8270 H       1  H101        0.0000
   2065 HA          7.4590    1.1600   27.2070 H       1  H101        0.0000
   2066 HA         18.8790   23.3200   27.2070 H       1  H101        0.0000
   2067 HA         23.8190    7.6400   26.8270 H       1  H101        0.0000
   2068 HA          1.3190   13.7000   47.8570 H       1  H101        0.0000
   2069 HA          1.3190   24.7800   47.8570 H       1  H101        0.0000
   2070 HA         24.1590    2.6200   47.8570 H       1  H101        0.0000
   2071 HA          1.3190    2.6200   47.8570 H       1  H101        0.0000
   2072 HA         12.7390   13.7000   47.8570 H       1  H101        0.0000
   2073 HA         12.7390   24.7800   47.8570 H       1  H101        0.0000
   2074 HA         12.7390    2.6200   47.8570 H       1  H101        0.0000
   2075 HA         24.1590   24.7800   47.8570 H       1  H101        0.0000
   2076 HA         24.1590   13.7000   47.8570 H       1  H101        0.0000
   2077 HA          0.9790   29.8000   26.8270 H       1  H101        0.0000
   2078 HA         12.3990   29.8000   26.8270 H       1  H101        0.0000
   2079 HA         23.8190   18.7200   26.8270 H       1  H101        0.0000
   2080 HA          9.7690   17.7800   49.0370 H       1  H101        0.0000
   2081 HA         32.6090   17.7800   49.0370 H       1  H101        0.0000
   2082 HA         32.6090    6.7000   49.0370 H       1  H101        0.0000
   2083 HA          9.7690    6.7000   49.0370 H       1  H101        0.0000
   2084 HA         32.6090   28.8600   49.0370 H       1  H101        0.0000
   2085 HA         21.1890   28.8600   49.0370 H       1  H101        0.0000
   2086 HA          9.7690   28.8600   49.0370 H       1  H101        0.0000
   2087 HA         21.1890    6.7000   49.0370 H       1  H101        0.0000
   2088 HA         21.1890   17.7800   49.0370 H       1  H101        0.0000
   2089 HA          7.1090   20.2100   48.1370 H       1  H101        0.0000
   2090 HA          7.1090    9.1300   48.1370 H       1  H101        0.0000
   2091 HA         29.9490   31.2900   48.1370 H       1  H101        0.0000
   2092 HA         18.5290   31.2900   48.1370 H       1  H101        0.0000
   2093 HA         29.9490   20.2100   48.1370 H       1  H101        0.0000
   2094 HA          7.1090   31.2900   48.1370 H       1  H101        0.0000
   2095 HA         18.5290    9.1300   48.1370 H       1  H101        0.0000
   2096 HA         29.9490    9.1300   48.1370 H       1  H101        0.0000
   2097 HA         18.5290   20.2100   48.1370 H       1  H101        0.0000
   2098 HA          1.0390   18.7500   46.4170 H       1  H101        0.0000
   2099 HA         12.4590   18.7500   46.4170 H       1  H101        0.0000
   2100 HA          1.0390    7.6700   46.4170 H       1  H101        0.0000
   2101 HA          1.0390   29.8300   46.4170 H       1  H101        0.0000
   2102 HA         23.8790   29.8300   46.4170 H       1  H101        0.0000
   2103 HA         12.4590    7.6700   46.4170 H       1  H101        0.0000
   2104 HA         12.4590   29.8300   46.4170 H       1  H101        0.0000
   2105 HA         23.8790    7.6700   46.4170 H       1  H101        0.0000
   2106 HA         23.8790   18.7500   46.4170 H       1  H101        0.0000
   2107 HB4        19.8120    4.9730   56.9240 H       2  ALA2        0.0000
   2108 CB         19.6430    3.9860   57.3500 C.3     2  ALA2        0.0000
   2109 HB1        19.7540    4.0370   58.4340 H       2  ALA2        0.0000
   2110 HB2        18.6360    3.6420   57.0970 H       2  ALA2        0.0000
   2111 HB3        20.3760    3.2870   56.9450 H       2  ALA2        0.0000
   2112 O          16.1650   13.2480   62.0820 O.3     3  HOH3        0.0000
   2113 H1         16.9330   13.5140   62.6670 H       3  HOH3        0.0000
   2114 H2         16.4340   12.4880   61.4910 H       3  HOH3        0.0000
   2115 O          26.5220    6.7980    4.7840 O.3     4  HOH4        0.0000
   2116 H1         27.3110    6.8540    5.3970 H       4  HOH4        0.0000
   2117 H2         26.4250    7.6510    4.2720 H       4  HOH4        0.0000
   2118 O          21.2880   11.9280    9.3810 O.3     5  HOH5        0.0000
   2119 H1         22.2130   12.1590    9.0760 H       5  HOH5        0.0000
   2120 H2         21.3310   11.3680   10.2080 H       5  HOH5        0.0000
   2121 O           9.4680    9.6380    3.3620 O.3     6  HOH6        0.0000
   2122 H1          9.5770    8.7020    3.0240 H       6  HOH6        0.0000
   2123 H2          8.4980    9.8730    3.4100 H       6  HOH6        0.0000
   2124 O          16.7200   27.3050   73.8800 O.3     7  HOH7        0.0000
   2125 H1         16.9630   28.2680   74.0020 H       7  HOH7        0.0000
   2126 H2         16.8620   27.0350   72.9280 H       7  HOH7        0.0000
   2127 O          13.5270   30.7780    6.3040 O.3     8  HOH8        0.0000
   2128 H1         14.0950   30.3710    5.5880 H       8  HOH8        0.0000
   2129 H2         12.7240   31.2120    5.8970 H       8  HOH8        0.0000
   2130 O          24.2250   24.3990   54.1960 O.3     9  HOH9        0.0000
   2131 H1         23.8860   24.7190   53.3110 H       9  HOH9        0.0000
   2132 H2         23.5000   23.9140   54.6840 H       9  HOH9        0.0000
   2133 O          27.4390   23.1940   72.3090 O.3    10  HOH10       0.0000
   2134 H1         26.7170   22.9570   72.9610 H      10  HOH10       0.0000
   2135 H2         27.3770   24.1620   72.0690 H      10  HOH10       0.0000
   2136 O           1.0550   17.6930   60.3110 O.3    11  HOH11       0.0000
   2137 H1          1.0010   17.2460   61.2050 H      11  HOH11       0.0000
   2138 H2          0.9990   17.0110   59.5830 H      11  HOH11       0.0000
   2139 O           3.7240   28.7370   55.0440 O.3    12  HOH12       0.0000
   2140 H1          3.5180   27.8280   55.4090 H      12  HOH12       0.0000
   2141 H2          4.2240   28.6540   54.1820 H      12  HOH12       0.0000
   2142 O           5.9200   12.0020   53.9410 O.3    13  HOH13       0.0000
   2143 H1          5.5180   11.1230   53.6800 H      13  HOH13       0.0000
   2144 H2          6.4440   12.3780   53.1780 H      13  HOH13       0.0000
   2145 O           5.1580   26.3810    8.6830 O.3    14  HOH14       0.0000
   2146 H1          4.2060   26.3110    8.3830 H      14  HOH14       0.0000
   2147 H2          5.2100   26.9040    9.5340 H      14  HOH14       0.0000
   2148 O          13.9670   11.6940   68.8060 O.3    15  HOH15       0.0000
   2149 H1         13.8960   11.6980   67.8070 H      15  HOH15       0.0000
   2150 H2         13.8790   12.6240   69.1580 H      15  HOH15       0.0000
   2151 O          15.0050   24.3460   57.2180 O.3    16  HOH16       0.0000
   2152 H1         14.2580   23.8780   57.6920 H      16  HOH16       0.0000
   2153 H2         15.0600   24.0290   56.2720 H      16  HOH16       0.0000
   2154 O           4.4030    9.9610   13.7590 O.3    17  HOH17       0.0000
   2155 H1          4.7540   10.8490   14.0580 H      17  HOH17       0.0000
   2156 H2          4.4270    9.9020   12.7620 H      17  HOH17       0.0000
   2157 O          19.6040   14.0760   54.1980 O.3    18  HOH18       0.0000
   2158 H1         19.9980   14.9280   54.5450 H      18  HOH18       0.0000
   2159 H2         19.9030   13.3070   54.7630 H      18  HOH18       0.0000
   2160 O          13.1450    6.7770   71.6640 O.3    19  HOH19       0.0000
   2161 H1         13.2870    5.8660   71.2760 H      19  HOH19       0.0000
   2162 H2         12.6380    6.7070   72.5220 H      19  HOH19       0.0000
   2163 O           4.8420   10.6880   67.3450 O.3    20  HOH20       0.0000
   2164 H1          5.7190   10.7210   67.8270 H      20  HOH20       0.0000
   2165 H2          4.0950   10.5830   68.0010 H      20  HOH20       0.0000
   2166 O           2.5010   27.1490   65.0600 O.3    21  HOH21       0.0000
   2167 H1          2.9570   27.9440   64.6560 H      21  HOH21       0.0000
   2168 H2          2.4230   27.2670   66.0490 H      21  HOH21       0.0000
   2169 O          27.2200    2.5930   58.0610 O.3    22  HOH22       0.0000
   2170 H1         26.7990    2.7720   58.9510 H      22  HOH22       0.0000
   2171 H2         26.6550    2.9780   57.3320 H      22  HOH22       0.0000
   2172 O          24.9550   26.0900   12.0510 O.3    23  HOH23       0.0000
   2173 H1         24.8330   25.2540   12.5880 H      23  HOH23       0.0000
   2174 H2         24.7140   26.8880   12.6030 H      23  HOH23       0.0000
   2175 O          15.1500    3.5830   20.1050 O.3    24  HOH24       0.0000
   2176 H1         14.8610    4.4870   19.7850 H      24  HOH24       0.0000
   2177 H2         15.3470    3.6130   21.0840 H      24  HOH24       0.0000
   2178 O          12.7970   14.3890   20.7440 O.3    25  HOH25       0.0000
   2179 H1         12.5110   15.3390   20.6070 H      25  HOH25       0.0000
   2180 H2         13.5200   14.3460   21.4330 H      25  HOH25       0.0000
   2181 O           9.6290    8.4530    5.2090 O.3    26  HOH26       0.0000
   2182 H1          9.6740    7.4660    5.0520 H      26  HOH26       0.0000
   2183 H2          9.1280    8.6430    6.0520 H      26  HOH26       0.0000
   2184 O           3.3110   14.3210   72.0330 O.3    27  HOH27       0.0000
   2185 H1          3.1800   13.5920   72.7070 H      27  HOH27       0.0000
   2186 H2          4.2690   14.6030   72.0170 H      27  HOH27       0.0000
   2187 O          32.8480   19.1860    6.3760 O.3    28  HOH28       0.0000
   2188 H1         31.9590   18.7290    6.4140 H      28  HOH28       0.0000
   2189 H2         33.2670   19.1950    7.2830 H      28  HOH28       0.0000
   2190 O          29.9990   19.9710   21.8470 O.3    29  HOH29       0.0000
   2191 H1         30.9860   20.1320   21.8060 H      29  HOH29       0.0000
   2192 H2         29.5130   20.7050   21.3750 H      29  HOH29       0.0000
   2193 O           4.6420    3.8060    1.4790 O.3    30  HOH30       0.0000
   2194 H1          5.4930    4.0290    1.0000 H      30  HOH30       0.0000
   2195 H2          4.8340    3.6060    2.4390 H      30  HOH30       0.0000
   2196 O          26.8310   12.4550    7.2480 O.3    31  HOH31       0.0000
   2197 H1         25.8850   12.1520    7.1280 H      31  HOH31       0.0000
   2198 H2         27.0030   12.6640    8.2100 H      31  HOH31       0.0000
   2199 O          11.4880   27.3830   67.6020 O.3    32  HOH32       0.0000
   2200 H1         10.5740   27.7040   67.8530 H      32  HOH32       0.0000
   2201 H2         11.7660   27.7880   66.7310 H      32  HOH32       0.0000
   2202 O          29.0160   13.7400   71.9490 O.3    33  HOH33       0.0000
   2203 H1         29.3470   14.6050   71.5680 H      33  HOH33       0.0000
   2204 H2         29.7040   13.0260   71.8240 H      33  HOH33       0.0000
   2205 O          27.3460   31.8020   62.2070 O.3    34  HOH34       0.0000
   2206 H1         26.8970   32.1810   61.3960 H      34  HOH34       0.0000
   2207 H2         28.2800   31.5280   61.9830 H      34  HOH34       0.0000
   2208 O          31.9370   25.5210    7.5650 O.3    35  HOH35       0.0000
   2209 H1         31.1300   25.1970    8.0620 H      35  HOH35       0.0000
   2210 H2         31.8420   26.4940    7.3580 H      35  HOH35       0.0000
   2211 O          31.8830   28.6110   19.2470 O.3    36  HOH36       0.0000
   2212 H1         31.9900   29.6070   19.2560 H      36  HOH36       0.0000
   2213 H2         32.7150   28.1820   18.8960 H      36  HOH36       0.0000
   2214 O          32.1280   15.9900   13.0880 O.3    37  HOH37       0.0000
   2215 H1         31.3390   16.5560   12.8430 H      37  HOH37       0.0000
   2216 H2         32.0460   15.6830   14.0360 H      37  HOH37       0.0000
   2217 O          33.2650    7.3220    3.5550 O.3    38  HOH38       0.0000
   2218 H1         33.2300    7.9840    4.3050 H      38  HOH38       0.0000
   2219 H2         33.1050    6.4000    3.9050 H      38  HOH38       0.0000
   2220 O          19.6860    1.8250    4.0830 O.3    39  HOH39       0.0000
   2221 H1         18.6980    1.9760    4.0280 H      39  HOH39       0.0000
   2222 H2         19.9360    1.0050    3.5680 H      39  HOH39       0.0000
   2223 O          21.4860   14.5120   62.6680 O.3    40  HOH40       0.0000
   2224 H1         21.3500   14.7310   61.7000 H      40  HOH40       0.0000
   2225 H2         20.6020   14.4370   63.1280 H      40  HOH40       0.0000
   2226 O           1.0510   31.9130   11.5390 O.3    41  HOH41       0.0000
   2227 H1          1.8050   31.9850   10.8840 H      41  HOH41       0.0000
   2228 H2          1.0000   30.9830   11.9000 H      41  HOH41       0.0000
   2229 O          13.3600   23.2850   61.8510 O.3    42  HOH42       0.0000
   2230 H1         12.9880   23.6560   60.9990 H      42  HOH42       0.0000
   2231 H2         14.1730   23.7990   62.1220 H      42  HOH42       0.0000
   2232 O           7.2760    9.9150   64.8380 O.3    43  HOH43       0.0000
   2233 H1          8.0520    9.3050   65.0080 H      43  HOH43       0.0000
   2234 H2          7.5950   10.8580   64.7550 H      43  HOH43       0.0000
   2235 O          32.9110    8.3830   15.2070 O.3    44  HOH44       0.0000
   2236 H1         33.2590    7.4500   15.1020 H      44  HOH44       0.0000
   2237 H2         33.1300    8.9220   14.3950 H      44  HOH44       0.0000
   2238 O          18.0690    4.4940   13.5790 O.3    45  HOH45       0.0000
   2239 H1         17.7010    5.3730   13.8870 H      45  HOH45       0.0000
   2240 H2         19.0470    4.5790   13.3970 H      45  HOH45       0.0000
   2241 O           8.7870   28.0760   53.3870 O.3    46  HOH46       0.0000
   2242 H1          9.3660   28.6230   52.7800 H      46  HOH46       0.0000
   2243 H2          7.8780   27.9690   52.9870 H      46  HOH46       0.0000
   2244 O           9.0050   16.9020    7.1260 O.3    47  HOH47       0.0000
   2245 H1          8.4920   16.0700    7.3450 H      47  HOH47       0.0000
   2246 H2          9.9690   16.7800    7.3580 H      47  HOH47       0.0000
   2247 O           7.1000   28.0130   58.5710 O.3    48  HOH48       0.0000
   2248 H1          7.1940   27.2880   59.2550 H      48  HOH48       0.0000
   2249 H2          6.4360   27.7420   57.8750 H      48  HOH48       0.0000
   2250 O          21.3950    9.4550   64.5700 O.3    49  HOH49       0.0000
   2251 H1         21.8250    9.5630   63.6730 H      49  HOH49       0.0000
   2252 H2         21.5570   10.2690   65.1270 H      49  HOH49       0.0000
   2253 O          18.7520   11.3890   70.6560 O.3    50  HOH50       0.0000
   2254 H1         18.9170   10.4120   70.5110 H      50  HOH50       0.0000
   2255 H2         17.8660   11.5240   71.0970 H      50  HOH50       0.0000
   2256 O          26.1240    8.3000   59.8860 O.3    51  HOH51       0.0000
   2257 H1         25.3550    7.7540   60.2210 H      51  HOH51       0.0000
   2258 H2         26.3790    8.0020   58.9670 H      51  HOH51       0.0000
   2259 O           5.2170   23.5690   66.6980 O.3    52  HOH52       0.0000
   2260 H1          4.5810   24.0270   67.3200 H      52  HOH52       0.0000
   2261 H2          4.7950   23.4580   65.7990 H      52  HOH52       0.0000
   2262 O          12.8870   28.3910    5.8100 O.3    53  HOH53       0.0000
   2263 H1         12.0280   27.9210    5.6010 H      53  HOH53       0.0000
   2264 H2         12.8740   28.7250    6.7520 H      53  HOH53       0.0000
   2265 O          28.9210    4.9440    6.7130 O.3    54  HOH54       0.0000
   2266 H1         28.0440    5.3260    7.0100 H      54  HOH54       0.0000
   2267 H2         28.7690    4.2440    6.0160 H      54  HOH54       0.0000
   2268 O          10.6640   20.6900   61.9160 O.3    55  HOH55       0.0000
   2269 H1         11.3530   20.3280   62.5450 H      55  HOH55       0.0000
   2270 H2          9.8150   20.8730   62.4090 H      55  HOH55       0.0000
   2271 O           6.1420    3.4400   21.1480 O.3    56  HOH56       0.0000
   2272 H1          7.0510    3.3860   21.5640 H      56  HOH56       0.0000
   2273 H2          6.2100    3.8170   20.2250 H      56  HOH56       0.0000
   2274 O          33.2620   24.4680    2.1800 O.3    57  HOH57       0.0000
   2275 H1         32.4450   24.9880    2.4340 H      57  HOH57       0.0000
   2276 H2         33.2260   24.2280    1.2110 H      57  HOH57       0.0000
   2277 O          24.3260    9.4710    3.0160 O.3    58  HOH58       0.0000
   2278 H1         23.4340    9.0650    2.8090 H      58  HOH58       0.0000
   2279 H2         24.7370    9.0090    3.8010 H      58  HOH58       0.0000
   2280 O          26.3500   27.8380   64.2930 O.3    59  HOH59       0.0000
   2281 H1         26.6300   26.8850   64.1690 H      59  HOH59       0.0000
   2282 H2         25.4540   27.8760   64.7330 H      59  HOH59       0.0000
   2283 O          23.7190   17.4110   56.3220 O.3    60  HOH60       0.0000
   2284 H1         24.4480   16.8350   55.9490 H      60  HOH60       0.0000
   2285 H2         23.4910   17.1140   57.2490 H      60  HOH60       0.0000
   2286 O          32.3740   13.7510   56.2140 O.3    61  HOH61       0.0000
   2287 H1         32.9170   13.0840   55.7020 H      61  HOH61       0.0000
   2288 H2         32.1340   13.3810   57.1100 H      61  HOH61       0.0000
   2289 O          23.9550    6.3840   15.4640 O.3    62  HOH62       0.0000
   2290 H1         24.2660    6.0370   14.5780 H      62  HOH62       0.0000
   2291 H2         22.9950    6.6550   15.4070 H      62  HOH62       0.0000
   2292 O           4.2900   19.8100    6.2700 O.3    63  HOH63       0.0000
   2293 H1          4.4640   20.6420    6.7980 H      63  HOH63       0.0000
   2294 H2          4.8460   19.0580    6.6230 H      63  HOH63       0.0000
   2295 O          22.7790    4.8560   16.6540 O.3    64  HOH64       0.0000
   2296 H1         22.8970    3.8770   16.4810 H      64  HOH64       0.0000
   2297 H2         22.7740    5.0300   17.6380 H      64  HOH64       0.0000
   2298 O          15.3950   24.8570   18.6810 O.3    65  HOH65       0.0000
   2299 H1         15.0370   25.5420   19.3170 H      65  HOH65       0.0000
   2300 H2         15.9050   24.1590   19.1830 H      65  HOH65       0.0000
   2301 O          30.8790   19.1660    3.5390 O.3    66  HOH66       0.0000
   2302 H1         30.6710   18.2620    3.1620 H      66  HOH66       0.0000
   2303 H2         30.8820   19.1260    4.5380 H      66  HOH66       0.0000
   2304 O           1.4020   11.6470   62.1080 O.3    67  HOH67       0.0000
   2305 H1          1.1100   10.7700   61.7230 H      67  HOH67       0.0000
   2306 H2          1.0000   11.7750   63.0130 H      67  HOH67       0.0000
   2307 O           2.6350   22.5580   72.3110 O.3    68  HOH68       0.0000
   2308 H1          2.5170   23.2500   71.5970 H      68  HOH68       0.0000
   2309 H2          1.9420   22.6770   73.0200 H      68  HOH68       0.0000
   2310 O          18.7740   20.8650   72.2040 O.3    69  HOH69       0.0000
   2311 H1         19.3950   20.2680   72.7130 H      69  HOH69       0.0000
   2312 H2         19.2980   21.5440   71.6900 H      69  HOH69       0.0000
   2313 O          22.3740    1.0140    7.4000 O.3    70  HOH70       0.0000
   2314 H1         22.9800    1.6740    6.9550 H      70  HOH70       0.0000
   2315 H2         22.5520    0.9950    8.3830 H      70  HOH70       0.0000
   2316 O          16.5040    5.6060    3.3900 O.3    71  HOH71       0.0000
   2317 H1         17.3000    6.0220    3.8330 H      71  HOH71       0.0000
   2318 H2         15.8170    6.3050    3.1950 H      71  HOH71       0.0000
   2319 O          27.1500   22.8170    9.7390 O.3    72  HOH72       0.0000
   2320 H1         27.6170   21.9330    9.6900 H      72  HOH72       0.0000
   2321 H2         27.3460   23.3530    8.9190 H      72  HOH72       0.0000
   2322 O          16.5840    3.3590   59.6130 O.3    73  HOH73       0.0000
   2323 H1         15.8460    3.7260   59.0460 H      73  HOH73       0.0000
   2324 H2         16.2130    3.0140   60.4750 H      73  HOH73       0.0000
   2325 O           1.3740   21.8640   11.4890 O.3    74  HOH74       0.0000
   2326 H1          1.0700   21.0130   11.0590 H      74  HOH74       0.0000
   2327 H2          1.1510   21.8530   12.4640 H      74  HOH74       0.0000
   2328 O           5.6500   17.3900   61.9400 O.3    75  HOH75       0.0000
   2329 H1          4.9760   16.7090   62.2290 H      75  HOH75       0.0000
   2330 H2          6.5130   17.2440   62.4230 H      75  HOH75       0.0000
   2331 O          11.3640   11.1120   11.3380 O.3    76  HOH76       0.0000
   2332 H1         12.3050   10.8030   11.4850 H      76  HOH76       0.0000
   2333 H2         11.2620   12.0560   11.6510 H      76  HOH76       0.0000
   2334 O           8.4810    4.2950   12.9910 O.3    77  HOH77       0.0000
   2335 H1          8.8840    5.2070   12.9000 H      77  HOH77       0.0000
   2336 H2          8.9610    3.7790   13.7000 H      77  HOH77       0.0000
   2337 O          23.5660   31.9080    7.6050 O.3    78  HOH78       0.0000
   2338 H1         23.7730   32.2570    8.5210 H      78  HOH78       0.0000
   2339 H2         23.0540   31.0530    7.6740 H      78  HOH78       0.0000
   2340 O          19.7170   15.6020   60.4990 O.3    79  HOH79       0.0000
   2341 H1         19.0550   15.0020   60.9510 H      79  HOH79       0.0000
   2342 H2         19.5170   15.6550   59.5210 H      79  HOH79       0.0000
   2343 O          14.0340   25.1620   10.1780 O.3    80  HOH80       0.0000
   2344 H1         13.1450   25.4240    9.8010 H      80  HOH80       0.0000
   2345 H2         13.9730   25.0790   11.1720 H      80  HOH80       0.0000
   2346 O          11.5760    8.6890   71.8000 O.3    81  HOH81       0.0000
   2347 H1         10.8880    9.4110   71.7140 H      81  HOH81       0.0000
   2348 H2         11.9110    8.4270   70.8950 H      81  HOH81       0.0000
   2349 O           1.7910    3.4860   62.5290 O.3    82  HOH82       0.0000
   2350 H1          1.6950    4.1280   61.7670 H      82  HOH82       0.0000
   2351 H2          1.2330    3.7870   63.3020 H      82  HOH82       0.0000
   2352 O          29.9950   27.2410   70.3360 O.3    83  HOH83       0.0000
   2353 H1         29.9270   27.8930   71.0920 H      83  HOH83       0.0000
   2354 H2         30.6320   26.5080   70.5730 H      83  HOH83       0.0000
   2355 O          22.2590   27.8610   53.7390 O.3    84  HOH84       0.0000
   2356 H1         21.9340   28.3510   52.9290 H      84  HOH84       0.0000
   2357 H2         21.5410   27.8340   54.4330 H      84  HOH84       0.0000
   2358 O           9.2050    3.8170   21.4130 O.3    85  HOH85       0.0000
   2359 H1          9.5840    2.9890   20.9980 H      85  HOH85       0.0000
   2360 H2          9.1000    3.6870   22.3980 H      85  HOH85       0.0000
   2361 O           5.0000   27.6410   16.1380 O.3    86  HOH86       0.0000
   2362 H1          5.6040   28.4360   16.0620 H      86  HOH86       0.0000
   2363 H2          5.3820   26.9830   16.7860 H      86  HOH86       0.0000
   2364 O          24.7110    9.0410   16.3500 O.3    87  HOH87       0.0000
   2365 H1         24.8910    8.5450   17.2010 H      87  HOH87       0.0000
   2366 H2         24.0170    8.5610   15.8150 H      87  HOH87       0.0000
   2367 O          15.9020   19.6860   68.8360 O.3    88  HOH88       0.0000
   2368 H1         15.7760   19.6830   69.8290 H      88  HOH88       0.0000
   2369 H2         16.8150   19.3530   68.6070 H      88  HOH88       0.0000
   2370 O          13.3300   23.5290    4.2080 O.3    89  HOH89       0.0000
   2371 H1         12.9980   24.4380    3.9530 H      89  HOH89       0.0000
   2372 H2         13.1650   22.8840    3.4620 H      89  HOH89       0.0000
   2373 O          15.7330   19.7520   60.6260 O.3    90  HOH90       0.0000
   2374 H1         16.7240   19.8970   60.6320 H      90  HOH90       0.0000
   2375 H2         15.3330   20.1650   59.8090 H      90  HOH90       0.0000
   2376 O          25.3910    9.3580   71.9190 O.3    91  HOH91       0.0000
   2377 H1         25.4030   10.2330   72.4050 H      91  HOH91       0.0000
   2378 H2         24.4970    9.2140   71.4960 H      91  HOH91       0.0000
   2379 O          11.9310   32.2490   68.9410 O.3    92  HOH92       0.0000
   2380 H1         10.9940   31.9770   69.1640 H      92  HOH92       0.0000
   2381 H2         12.1760   31.9170   68.0310 H      92  HOH92       0.0000
   2382 O          26.9130   20.1950   12.9250 O.3    93  HOH93       0.0000
   2383 H1         26.9450   21.1010   13.3480 H      93  HOH93       0.0000
   2384 H2         26.6760   20.2770   11.9580 H      93  HOH93       0.0000
   2385 O          15.4820   11.8490   57.5230 O.3    94  HOH94       0.0000
   2386 H1         15.6570   10.8790   57.6970 H      94  HOH94       0.0000
   2387 H2         15.5670   12.0420   56.5470 H      94  HOH94       0.0000
   2388 O          18.7530   25.4430   20.6870 O.3    95  HOH95       0.0000
   2389 H1         19.3100   24.6620   20.4000 H      95  HOH95       0.0000
   2390 H2         18.4750   25.3330   21.6400 H      95  HOH95       0.0000
   2391 O          22.1290   14.4850   69.7020 O.3    96  HOH96       0.0000
   2392 H1         21.6570   15.3310   69.9560 H      96  HOH96       0.0000
   2393 H2         21.8790   14.2210   68.7710 H      96  HOH96       0.0000
   2394 O          30.7630   10.6930   53.9620 O.3    97  HOH97       0.0000
   2395 H1         31.4350   10.0680   54.3600 H      97  HOH97       0.0000
   2396 H2         31.1580   11.1610   53.1720 H      97  HOH97       0.0000
   2397 O           6.9480    9.2320   13.8030 O.3    98  HOH98       0.0000
   2398 H1          6.1730    8.7240   14.1810 H      98  HOH98       0.0000
   2399 H2          7.1080    8.9570   12.8560 H      98  HOH98       0.0000
   2400 O          14.7520    5.8170    8.4070 O.3    99  HOH99       0.0000
   2401 H1         14.7350    4.9190    8.8480 H      99  HOH99       0.0000
   2402 H2         15.0880    5.7310    7.4700 H      99  HOH99       0.0000
   2403 O          32.7540   17.8240   63.4290 O.3   100  HOH100      0.0000
   2404 H1         32.4620   16.8680   63.4810 H     100  HOH100      0.0000
   2405 H2         33.2600   17.9810   62.5820 H     100  HOH100      0.0000
   2406 O           7.8680   15.0430   58.8810 O.3   101  HOH101      0.0000
   2407 H1          7.5360   15.9740   59.0390 H     101  HOH101      0.0000
   2408 H2          7.9210   14.5470   59.7470 H     101  HOH101      0.0000
   2409 O          25.3650   31.0650   53.0070 O.3   102  HOH102      0.0000
   2410 H1         26.2130   30.9680   53.5300 H     102  HOH102      0.0000
   2411 H2         25.0180   31.9980   53.0890 H     102  HOH102      0.0000
   2412 O           2.6530    7.3060   13.0110 O.3   103  HOH103      0.0000
   2413 H1          3.0200    8.2110   12.7910 H     103  HOH103      0.0000
   2414 H2          2.9460    7.0330   13.9270 H     103  HOH103      0.0000
   2415 O          27.1850   18.4040   60.4220 O.3   104  HOH104      0.0000
   2416 H1         26.4390   17.7720   60.2100 H     104  HOH104      0.0000
   2417 H2         27.1010   18.7300   61.3630 H     104  HOH104      0.0000
   2418 O          24.4040   31.3950   73.0260 O.3   105  HOH105      0.0000
   2419 H1         24.3020   31.5980   74.0010 H     105  HOH105      0.0000
   2420 H2         24.5550   32.2400   72.5140 H     105  HOH105      0.0000
   2421 O           4.8790   13.9910   74.0400 O.3   106  HOH106      0.0000
   2422 H1          5.6570   14.5290   73.7120 H     106  HOH106      0.0000
   2423 H2          5.0030   13.0290   73.7990 H     106  HOH106      0.0000
   2424 O          14.1910    5.4750   55.2710 O.3   107  HOH107      0.0000
   2425 H1         14.9890    5.2680   54.7040 H     107  HOH107      0.0000
   2426 H2         14.3350    6.3320   55.7640 H     107  HOH107      0.0000
   2427 O           7.1550    3.3510    3.4410 O.3   108  HOH108      0.0000
   2428 H1          6.6130    4.1790    3.5990 H     108  HOH108      0.0000
   2429 H2          7.3660    2.9100    4.3130 H     108  HOH108      0.0000
   2430 O          23.1710   15.8550   67.8910 O.3   109  HOH109      0.0000
   2431 H1         23.1820   15.3400   67.0320 H     109  HOH109      0.0000
   2432 H2         23.7650   15.4120   68.5610 H     109  HOH109      0.0000
   2433 O          17.6170   29.4030    7.1250 O.3   110  HOH110      0.0000
   2434 H1         17.0480   29.8870    6.4590 H     110  HOH110      0.0000
   2435 H2         17.6950   29.9430    7.9630 H     110  HOH110      0.0000
   2436 O          17.9210   27.6540   58.6660 O.3   111  HOH111      0.0000
   2437 H1         18.7950   27.1640   58.6610 H     111  HOH111      0.0000
   2438 H2         18.0530   28.5910   58.3450 H     111  HOH111      0.0000
   2439 O          25.5650    9.3900   53.5010 O.3   112  HOH112      0.0000
   2440 H1         26.2860    8.8080   53.1220 H     112  HOH112      0.0000
   2441 H2         25.3230    9.0790   54.4190 H     112  HOH112      0.0000
   2442 O          18.9210    7.6150    5.1430 O.3   113  HOH113      0.0000
   2443 H1         19.2550    7.0650    4.3760 H     113  HOH113      0.0000
   2444 H2         17.9290    7.7190    5.0820 H     113  HOH113      0.0000
   2445 O          18.8360   26.8970    1.5670 O.3   114  HOH114      0.0000
   2446 H1         19.5560   26.4720    1.0170 H     114  HOH114      0.0000
   2447 H2         18.2650   27.4810    0.9910 H     114  HOH114      0.0000
   2448 O           8.0350   16.3680   15.5830 O.3   115  HOH115      0.0000
   2449 H1          8.6750   17.1050   15.3610 H     115  HOH115      0.0000
   2450 H2          7.2800   16.3630   14.9290 H     115  HOH115      0.0000
   2451 O           9.0260   18.9550   68.9890 O.3   116  HOH116      0.0000
   2452 H1          9.8480   19.4020   69.3450 H     116  HOH116      0.0000
   2453 H2          8.7890   19.3360   68.0960 H     116  HOH116      0.0000
   2454 O          22.3200    4.0450   20.7270 O.3   117  HOH117      0.0000
   2455 H1         23.0980    4.2340   21.3280 H     117  HOH117      0.0000
   2456 H2         22.4250    4.5400   19.8660 H     117  HOH117      0.0000
   2457 O           3.0720   18.2210   20.9900 O.3   118  HOH118      0.0000
   2458 H1          3.6150   18.4700   21.7930 H     118  HOH118      0.0000
   2459 H2          3.4120   17.3650   20.6010 H     118  HOH118      0.0000
   2460 O          26.4120   12.4730   67.7370 O.3   119  HOH119      0.0000
   2461 H1         26.4250   11.6400   68.2930 H     119  HOH119      0.0000
   2462 H2         26.9260   12.3280   66.8920 H     119  HOH119      0.0000
   2463 O           8.1430   26.3930   55.6110 O.3   120  HOH120      0.0000
   2464 H1          7.8570   26.5450   54.6640 H     120  HOH120      0.0000
   2465 H2          7.3560   26.1310   56.1680 H     120  HOH120      0.0000
   2466 O          16.2160   27.9030   56.3660 O.3   121  HOH121      0.0000
   2467 H1         17.1520   28.2590   56.3660 H     121  HOH121      0.0000
   2468 H2         15.6020   28.5570   55.9240 H     121  HOH121      0.0000
   2469 O           7.7570   21.1640   17.7700 O.3   122  HOH122      0.0000
   2470 H1          7.8980   22.0640   17.3550 H     122  HOH122      0.0000
   2471 H2          7.6240   21.2600   18.7560 H     122  HOH122      0.0000
   2472 O          15.4250   30.2620   13.4760 O.3   123  HOH123      0.0000
   2473 H1         15.2870   29.3410   13.1100 H     123  HOH123      0.0000
   2474 H2         15.0450   30.3230   14.3980 H     123  HOH123      0.0000
   2475 O          16.8050   16.0240   17.0560 O.3   124  HOH124      0.0000
   2476 H1         17.1130   16.4630   17.9010 H     124  HOH124      0.0000
   2477 H2         15.8550   15.7270   17.1530 H     124  HOH124      0.0000
   2478 O          27.5200    9.8790   71.7700 O.3   125  HOH125      0.0000
   2479 H1         28.1230   10.0360   72.5530 H     125  HOH125      0.0000
   2480 H2         27.5080   10.6860   71.1800 H     125  HOH125      0.0000
   2481 O           1.5970   15.7100   67.9290 O.3   126  HOH126      0.0000
   2482 H1          0.9930   15.8490   68.7160 H     126  HOH126      0.0000
   2483 H2          1.0570   15.4810   67.1200 H     126  HOH126      0.0000
   2484 O          16.1730   22.9290   10.4410 O.3   127  HOH127      0.0000
   2485 H1         15.3700   23.4290   10.7670 H     127  HOH127      0.0000
   2486 H2         16.8000   22.7580   11.2000 H     127  HOH127      0.0000
   2487 O           4.7410    5.8110   18.0410 O.3   128  HOH128      0.0000
   2488 H1          4.5450    4.8370   17.9180 H     128  HOH128      0.0000
   2489 H2          4.9720    6.2270   17.1620 H     128  HOH128      0.0000
   2490 O           3.4750   30.1690    9.8760 O.3   129  HOH129      0.0000
   2491 H1          4.0970   30.6080   10.5260 H     129  HOH129      0.0000
   2492 H2          3.0550   30.8580    9.2860 H     129  HOH129      0.0000
   2493 O          26.6290   10.9280    3.7210 O.3   130  HOH130      0.0000
   2494 H1         25.8120   11.1240    3.1770 H     130  HOH130      0.0000
   2495 H2         27.2980   10.4340    3.1670 H     130  HOH130      0.0000
   2496 O          24.1890   32.0310   57.2100 O.3   131  HOH131      0.0000
   2497 H1         25.0680   32.2440   56.7800 H     131  HOH131      0.0000
   2498 H2         24.3110   31.3240   57.9060 H     131  HOH131      0.0000
   2499 O           1.4450   25.7420   60.2780 O.3   132  HOH132      0.0000
   2500 H1          1.1270   26.5450   60.7820 H     132  HOH132      0.0000
   2501 H2          1.0000   25.7000   59.3850 H     132  HOH132      0.0000
   2502 O          26.8540    0.9980   11.0820 O.3   133  HOH133      0.0000
   2503 H1         27.2170    1.8860   11.3690 H     133  HOH133      0.0000
   2504 H2         25.9080    1.0990   10.7750 H     133  HOH133      0.0000
   2505 O           4.0420   25.6880   70.0330 O.3   134  HOH134      0.0000
   2506 H1          4.6330   26.3820   70.4450 H     134  HOH134      0.0000
   2507 H2          4.0090   24.8770   70.6170 H     134  HOH134      0.0000
   2508 O           6.6580   29.6150   56.1090 O.3   135  HOH135      0.0000
   2509 H1          5.8710   29.5360   56.7240 H     135  HOH135      0.0000
   2510 H2          6.3480   29.8330   55.1850 H     135  HOH135      0.0000
   2511 O          12.2660   26.7660   64.3670 O.3   136  HOH136      0.0000
   2512 H1         12.6540   26.6930   63.4470 H     136  HOH136      0.0000
   2513 H2         11.9840   27.7080   64.5450 H     136  HOH136      0.0000
   2514 O           9.3890   21.5900   60.3750 O.3   137  HOH137      0.0000
   2515 H1          8.8390   22.3330   60.7610 H     137  HOH137      0.0000
   2516 H2          9.0510   21.3530   59.4650 H     137  HOH137      0.0000
   2517 O          30.5100    9.2390   15.8730 O.3   138  HOH138      0.0000
   2518 H1         29.8500    9.8660   16.2880 H     138  HOH138      0.0000
   2519 H2         31.2780    9.0900   16.4950 H     138  HOH138      0.0000
   2520 O           7.9860   26.4040   15.5220 O.3   139  HOH139      0.0000
   2521 H1          7.4490   27.0720   16.0380 H     139  HOH139      0.0000
   2522 H2          8.7500   26.0770   16.0780 H     139  HOH139      0.0000
   2523 O          27.5740   13.5980   58.5850 O.3   140  HOH140      0.0000
   2524 H1         28.3800   13.1790   58.1630 H     140  HOH140      0.0000
   2525 H2         27.3490   13.1240   59.4350 H     140  HOH140      0.0000
   2526 O          22.3540   15.6180   73.4290 O.3   141  HOH141      0.0000
   2527 H1         21.5520   15.7990   74.0000 H     141  HOH141      0.0000
   2528 H2         23.1230   15.3320   74.0000 H     141  HOH141      0.0000
   2529 O           6.9280    6.1410   66.7410 O.3   142  HOH142      0.0000
   2530 H1          7.0100    5.2340   67.1560 H     142  HOH142      0.0000
   2531 H2          7.3220    6.1350   65.8230 H     142  HOH142      0.0000
   2532 O          32.7000    6.5740   61.3560 O.3   143  HOH143      0.0000
   2533 H1         33.2600    7.2730   60.9080 H     143  HOH143      0.0000
   2534 H2         33.2360    5.7420   61.4920 H     143  HOH143      0.0000
   2535 O          23.2460   32.2290   62.0330 O.3   144  HOH144      0.0000
   2536 H1         23.5740   31.5240   62.6620 H     144  HOH144      0.0000
   2537 H2         23.8140   32.2450   61.2110 H     144  HOH144      0.0000
   2538 O          26.5310   25.8280   61.5570 O.3   145  HOH145      0.0000
   2539 H1         26.6040   26.8210   61.4490 H     145  HOH145      0.0000
   2540 H2         26.4720   25.3910   60.6600 H     145  HOH145      0.0000
   2541 O          30.1850    8.3150   18.3630 O.3   146  HOH146      0.0000
   2542 H1         29.8980    7.7650   17.5770 H     146  HOH146      0.0000
   2543 H2         29.6750    9.1750   18.3830 H     146  HOH146      0.0000
   2544 O          10.9300   20.5400   17.6660 O.3   147  HOH147      0.0000
   2545 H1         11.8460   20.8760   17.8860 H     147  HOH147      0.0000
   2546 H2         10.9050   19.5440   17.7360 H     147  HOH147      0.0000
   2547 O           2.5270   10.8950    8.6470 O.3   148  HOH148      0.0000
   2548 H1          3.2510   10.2360    8.4350 H     148  HOH148      0.0000
   2549 H2          2.9130   11.8140    8.7200 H     148  HOH148      0.0000
   2550 O          16.8800   23.8550   62.1210 O.3   149  HOH149      0.0000
   2551 H1         16.2470   23.1080   62.3310 H     149  HOH149      0.0000
   2552 H2         17.0110   24.4280   62.9290 H     149  HOH149      0.0000
   2553 O          32.6060   21.2840    7.0910 O.3   150  HOH150      0.0000
   2554 H1         33.1820   21.3250    7.9090 H     150  HOH150      0.0000
   2555 H2         31.7330   20.8500    7.3090 H     150  HOH150      0.0000
   2556 O          20.0320   30.8510   10.8830 O.3   151  HOH151      0.0000
   2557 H1         19.9400   31.8360   11.0410 H     151  HOH151      0.0000
   2558 H2         19.2170   30.5020   10.4220 H     151  HOH151      0.0000
   2559 O           4.0240    4.9950    4.9460 O.3   152  HOH152      0.0000
   2560 H1          5.0160    5.1270    4.9380 H     152  HOH152      0.0000
   2561 H2          3.5840    5.6700    4.3550 H     152  HOH152      0.0000
   2562 O          21.9480   30.5790   57.7340 O.3   153  HOH153      0.0000
   2563 H1         21.1150   30.7760   57.2150 H     153  HOH153      0.0000
   2564 H2         21.9340   29.6340   58.0570 H     153  HOH153      0.0000
   2565 O          20.0550   24.6140   59.4260 O.3   154  HOH154      0.0000
   2566 H1         20.0360   25.3260   60.1290 H     154  HOH154      0.0000
   2567 H2         20.5060   23.7950   59.7800 H     154  HOH154      0.0000
   2568 O           4.4940   16.3990   68.5880 O.3   155  HOH155      0.0000
   2569 H1          4.8230   17.3180   68.3630 H     155  HOH155      0.0000
   2570 H2          4.7170   15.7660   67.8480 H     155  HOH155      0.0000
   2571 O           1.7890   14.2650   13.7140 O.3   156  HOH156      0.0000
   2572 H1          1.2370   15.0340   14.0400 H     156  HOH156      0.0000
   2573 H2          2.7580   14.4450   13.8820 H     156  HOH156      0.0000
   2574 O          18.7160    7.2050    1.0720 O.3   157  HOH157      0.0000
   2575 H1         19.0630    8.1410    0.9950 H     157  HOH157      0.0000
   2576 H2         19.4710    6.5540    1.0020 H     157  HOH157      0.0000
   2577 O          28.6470    8.5640    5.7550 O.3   158  HOH158      0.0000
   2578 H1         28.1790    8.8150    4.9070 H     158  HOH158      0.0000
   2579 H2         28.5200    9.2790    6.4410 H     158  HOH158      0.0000
   2580 O          18.8820    4.1660    4.1250 O.3   159  HOH159      0.0000
   2581 H1         19.5110    4.8810    4.4360 H     159  HOH159      0.0000
   2582 H2         19.0380    3.9720    3.1570 H     159  HOH159      0.0000
   2583 O          27.3450   29.8180    2.7880 O.3   160  HOH160      0.0000
   2584 H1         27.7630   29.3480    3.5670 H     160  HOH160      0.0000
   2585 H2         26.3580   29.8900    2.9220 H     160  HOH160      0.0000
   2586 O          27.2720   30.8140   71.0420 O.3   161  HOH161      0.0000
   2587 H1         26.5830   30.8270   70.3160 H     161  HOH161      0.0000
   2588 H2         27.2600   31.6800   71.5410 H     161  HOH161      0.0000
   2589 O          26.0520   24.1950    5.1920 O.3   162  HOH162      0.0000
   2590 H1         26.4270   23.4550    4.6310 H     162  HOH162      0.0000
   2591 H2         25.7460   23.8340    6.0720 H     162  HOH162      0.0000
   2592 O          31.9310   10.5410   18.3520 O.3   163  HOH163      0.0000
   2593 H1         32.6510   10.3430   17.6860 H     163  HOH163      0.0000
   2594 H2         31.0840   10.7800   17.8790 H     163  HOH163      0.0000
   2595 O          14.9120   22.1620    1.8220 O.3   164  HOH164      0.0000
   2596 H1         14.4670   21.4690    2.3910 H     164  HOH164      0.0000
   2597 H2         15.8980   22.1570    1.9860 H     164  HOH164      0.0000
   2598 O          26.1250   22.2040    7.4970 O.3   165  HOH165      0.0000
   2599 H1         25.4190   22.7220    7.9810 H     165  HOH165      0.0000
   2600 H2         26.3350   21.3640    7.9960 H     165  HOH165      0.0000
   2601 O          26.7660    9.9080   21.9720 O.3   166  HOH166      0.0000
   2602 H1         26.2890    9.7020   22.8280 H     166  HOH166      0.0000
   2603 H2         26.6790   10.8800   21.7580 H     166  HOH166      0.0000
   2604 O          10.0240    4.8900   56.9630 O.3   167  HOH167      0.0000
   2605 H1          9.1170    4.4830   57.0780 H     167  HOH167      0.0000
   2606 H2         10.2490    5.4540   57.7560 H     167  HOH167      0.0000
   2607 O          30.1890   13.5020   60.2550 O.3   168  HOH168      0.0000
   2608 H1         29.2740   13.5930   60.6500 H     168  HOH168      0.0000
   2609 H2         30.1740   13.7670   59.2920 H     168  HOH168      0.0000
   2610 O           9.1410   29.2770   16.8640 O.3   169  HOH169      0.0000
   2611 H1          9.1560   28.2890   16.7080 H     169  HOH169      0.0000
   2612 H2          9.1380   29.7620   15.9900 H     169  HOH169      0.0000
   2613 O          13.3050    4.5050   14.6420 O.3   170  HOH170      0.0000
   2614 H1         12.6450    4.6070   15.3880 H     170  HOH170      0.0000
   2615 H2         12.8340    4.2270   13.8050 H     170  HOH170      0.0000
   2616 O          22.8830   15.1430    9.8630 O.3   171  HOH171      0.0000
   2617 H1         22.9750   14.1990    9.5410 H     171  HOH171      0.0000
   2618 H2         23.1770   15.2090   10.8150 H     171  HOH171      0.0000
   2619 O           3.1430   15.9740   17.8880 O.3   172  HOH172      0.0000
   2620 H1          4.0340   15.5550   18.0710 H     172  HOH172      0.0000
   2621 H2          3.0030   16.7560   18.4950 H     172  HOH172      0.0000
   2622 O           7.3080    9.6540   73.8940 O.3   173  HOH173      0.0000
   2623 H1          7.2470   10.6500   73.9780 H     173  HOH173      0.0000
   2624 H2          8.2570    9.3600   74.0030 H     173  HOH173      0.0000
   2625 O          31.1400    4.6170   63.5870 O.3   174  HOH174      0.0000
   2626 H1         31.9690    4.0750   63.4410 H     174  HOH174      0.0000
   2627 H2         30.5370    4.1500   64.2330 H     174  HOH174      0.0000
   2628 O          26.1150   20.9990   19.7220 O.3   175  HOH175      0.0000
   2629 H1         25.2110   20.7980   20.1030 H     175  HOH175      0.0000
   2630 H2         26.1840   20.6340   18.7950 H     175  HOH175      0.0000
   2631 O          27.1330    5.0170   17.7600 O.3   176  HOH176      0.0000
   2632 H1         27.5580    5.6900   17.1530 H     176  HOH176      0.0000
   2633 H2         27.6120    4.1430   17.6880 H     176  HOH176      0.0000
   2634 O           6.7510   14.6500    1.0000 O.3   177  HOH177      0.0000
   2635 H1          6.0630   13.9290    1.0890 H     177  HOH177      0.0000
   2636 H2          6.3670   15.5270    1.2870 H     177  HOH177      0.0000
   2637 O          20.4250   19.8330   16.3860 O.3   178  HOH178      0.0000
   2638 H1         19.6620   19.2350   16.1380 H     178  HOH178      0.0000
   2639 H2         20.4510   20.6250   15.7780 H     178  HOH178      0.0000
   2640 O           5.6080   22.1700    9.7780 O.3   179  HOH179      0.0000
   2641 H1          5.3130   23.0720   10.0960 H     179  HOH179      0.0000
   2642 H2          5.1090   21.9200    8.9490 H     179  HOH179      0.0000
   2643 O           1.2060    7.8770   65.9920 O.3   180  HOH180      0.0000
   2644 H1          1.0040    8.7170   66.4980 H     180  HOH180      0.0000
   2645 H2          1.0000    7.0800   66.5580 H     180  HOH180      0.0000
   2646 O          32.9770   28.4830   21.8600 O.3   181  HOH181      0.0000
   2647 H1         32.4580   27.8540   22.4400 H     181  HOH181      0.0000
   2648 H2         33.2600   28.0200   21.0210 H     181  HOH181      0.0000
   2649 O          15.6890   26.1530   69.6750 O.3   182  HOH182      0.0000
   2650 H1         14.9590   25.8090   69.0830 H     182  HOH182      0.0000
   2651 H2         16.5040   25.5830   69.5780 H     182  HOH182      0.0000
   2652 O          20.2210   11.5920    1.7670 O.3   183  HOH183      0.0000
   2653 H1         21.1180   11.2920    2.0950 H     183  HOH183      0.0000
   2654 H2         19.7130   12.0250    2.5100 H     183  HOH183      0.0000
   2655 O           9.4330   22.4570   54.7700 O.3   184  HOH184      0.0000
   2656 H1         10.4010   22.6850   54.6540 H     184  HOH184      0.0000
   2657 H2          8.8750   23.0180   54.1590 H     184  HOH184      0.0000
   2658 O          17.3980    3.4070   62.2860 O.3   185  HOH185      0.0000
   2659 H1         18.0420    3.6100   61.5470 H     185  HOH185      0.0000
   2660 H2         17.2940    4.2070   62.8760 H     185  HOH185      0.0000
   2661 O          26.0030   26.1270   15.0590 O.3   186  HOH186      0.0000
   2662 H1         25.8360   27.1010   15.2200 H     186  HOH186      0.0000
   2663 H2         26.2810   25.6830   15.9100 H     186  HOH186      0.0000
   2664 O           9.1400   20.0240   16.4950 O.3   187  HOH187      0.0000
   2665 H1          8.8630   19.0790   16.3140 H     187  HOH187      0.0000
   2666 H2          9.6100   20.4000   15.6970 H     187  HOH187      0.0000
   2667 O          32.9330   22.9470    4.2030 O.3   188  HOH188      0.0000
   2668 H1         32.6350   23.8940    4.3330 H     188  HOH188      0.0000
   2669 H2         33.2710   22.5740    5.0660 H     188  HOH188      0.0000
   2670 O          14.8730   29.9650   72.5380 O.3   189  HOH189      0.0000
   2671 H1         14.3730   29.9840   73.4050 H     189  HOH189      0.0000
   2672 H2         14.2300   29.8990   71.7750 H     189  HOH189      0.0000
   2673 O           3.4600   13.9150   57.4890 O.3   190  HOH190      0.0000
   2674 H1          4.0830   13.4010   58.0800 H     190  HOH190      0.0000
   2675 H2          3.9810   14.5120   56.8800 H     190  HOH190      0.0000
   2676 O          20.4390    2.0410   62.5290 O.3   191  HOH191      0.0000
   2677 H1         20.1770    2.7640   63.1710 H     191  HOH191      0.0000
   2678 H2         21.3310    2.2470   62.1280 H     191  HOH191      0.0000
   2679 O           3.8850   13.7990    1.3880 O.3   192  HOH192      0.0000
   2680 H1          4.2360   13.0280    1.9220 H     192  HOH192      0.0000
   2681 H2          3.5390   14.5090    2.0000 H     192  HOH192      0.0000
   2682 O          20.0160   21.8700   66.9740 O.3   193  HOH193      0.0000
   2683 H1         19.4700   21.9700   67.8070 H     193  HOH193      0.0000
   2684 H2         20.1090   22.7540   66.5180 H     193  HOH193      0.0000
   2685 O          24.0810   17.5510   69.0850 O.3   194  HOH194      0.0000
   2686 H1         24.4480   17.0990   69.8990 H     194  HOH194      0.0000
   2687 H2         24.6860   17.3940   68.3050 H     194  HOH194      0.0000
   2688 O          16.0370   14.7360   19.3480 O.3   195  HOH195      0.0000
   2689 H1         15.0650   14.6130   19.5560 H     195  HOH195      0.0000
   2690 H2         16.3840   13.9400   18.8530 H     195  HOH195      0.0000
   2691 O          14.5140    7.2190    1.6770 O.3   196  HOH196      0.0000
   2692 H1         14.1320    8.0270    2.1290 H     196  HOH196      0.0000
   2693 H2         13.8040    6.7590    1.1430 H     196  HOH196      0.0000
   2694 O          24.9280   25.4980   72.3390 O.3   197  HOH197      0.0000
   2695 H1         25.8520   25.8320   72.5270 H     197  HOH197      0.0000
   2696 H2         24.2550   26.1910   72.5960 H     197  HOH197      0.0000
   2697 O          15.7680   21.9240   68.9060 O.3   198  HOH198      0.0000
   2698 H1         15.2410   21.8630   69.7550 H     198  HOH198      0.0000
   2699 H2         16.7280   21.7100   69.0840 H     198  HOH198      0.0000
   2700 O          20.2850   27.2400   67.3190 O.3   199  HOH199      0.0000
   2701 H1         19.9830   27.8400   66.5770 H     199  HOH199      0.0000
   2702 H2         20.2080   27.7140   68.1950 H     199  HOH199      0.0000
   2703 O           1.8540   20.2310   71.0300 O.3   200  HOH200      0.0000
   2704 H1          1.3330   20.5220   70.2260 H     200  HOH200      0.0000
   2705 H2          1.5300   20.7170   71.8410 H     200  HOH200      0.0000
   2706 O          33.2610   26.8810   14.8160 O.3   201  HOH201      0.0000
   2707 H1         32.3360   26.5410   14.9930 H     201  HOH201      0.0000
   2708 H2         33.2240   27.6590   14.1890 H     201  HOH201      0.0000
   2709 O          23.7420   20.3770    2.2120 O.3   202  HOH202      0.0000
   2710 H1         23.5300   19.5010    1.7750 H     202  HOH202      0.0000
   2711 H2         24.6780   20.3650    2.5630 H     202  HOH202      0.0000
   2712 O          19.2430    4.2640   70.3140 O.3   203  HOH203      0.0000
   2713 H1         19.9570    4.3470   69.6180 H     203  HOH203      0.0000
   2714 H2         18.7600    5.1340   70.4140 H     203  HOH203      0.0000
   2715 O          21.4330   22.3930   72.7940 O.3   204  HOH204      0.0000
   2716 H1         21.3200   21.4030   72.6950 H     204  HOH204      0.0000
   2717 H2         22.3790   22.6490   72.5990 H     204  HOH204      0.0000
   2718 O          15.9960   31.8140   65.7260 O.3   205  HOH205      0.0000
   2719 H1         16.0930   32.2400   64.8260 H     205  HOH205      0.0000
   2720 H2         15.2430   32.2400   66.2270 H     205  HOH205      0.0000
   2721 O           9.4790   24.4380   57.3740 O.3   206  HOH206      0.0000
   2722 H1          9.2980   24.0930   56.4520 H     206  HOH206      0.0000
   2723 H2          8.6170   24.6280   57.8430 H     206  HOH206      0.0000
   2724 O           6.8830   13.1840    3.2950 O.3   207  HOH207      0.0000
   2725 H1          7.5690   13.3530    2.5860 H     207  HOH207      0.0000
   2726 H2          6.6270   12.2180    3.2980 H     207  HOH207      0.0000
   2727 O          26.7310   18.1600   21.2310 O.3   208  HOH208      0.0000
   2728 H1         26.9650   17.2830   20.8090 H     208  HOH208      0.0000
   2729 H2         26.3990   18.0130   22.1620 H     208  HOH208      0.0000
   2730 O          17.1910   19.6090   57.7630 O.3   209  HOH209      0.0000
   2731 H1         16.2280   19.4010   57.9390 H     209  HOH209      0.0000
   2732 H2         17.5870   20.0810   58.5500 H     209  HOH209      0.0000
   2733 O          18.5150   13.0740   64.2710 O.3   210  HOH210      0.0000
   2734 H1         17.9310   12.4100   64.7410 H     210  HOH210      0.0000
   2735 H2         18.9870   12.6340   63.5080 H     210  HOH210      0.0000
   2736 O           4.5540   32.2420   65.3310 O.3   211  HOH211      0.0000
   2737 H1          3.8230   32.1340   64.6560 H     211  HOH211      0.0000
   2738 H2          4.4390   31.5780   66.0680 H     211  HOH211      0.0000
   2739 O          18.3740   26.1150    6.5260 O.3   212  HOH212      0.0000
   2740 H1         18.1640   25.1430    6.4070 H     212  HOH212      0.0000
   2741 H2         19.3050   26.2230    6.8730 H     212  HOH212      0.0000
   2742 O          31.1840   20.7070   56.0270 O.3   213  HOH213      0.0000
   2743 H1         32.1170   20.9620   56.2830 H     213  HOH213      0.0000
   2744 H2         30.8240   21.3550   55.3570 H     213  HOH213      0.0000
   2745 O          17.4020   18.4720    1.7100 O.3   214  HOH214      0.0000
   2746 H1         16.9770   17.7330    2.2360 H     214  HOH214      0.0000
   2747 H2         18.0050   18.0900    1.0110 H     214  HOH214      0.0000
   2748 O          11.5000   16.8450   61.8540 O.3   215  HOH215      0.0000
   2749 H1         12.3000   16.8640   61.2510 H     215  HOH215      0.0000
   2750 H2         11.1820   17.7760   62.0270 H     215  HOH215      0.0000
   2751 O           9.4860   12.7310    9.0930 O.3   216  HOH216      0.0000
   2752 H1         10.3550   12.6570    9.5850 H     216  HOH216      0.0000
   2753 H2          8.9080   11.9430    9.3010 H     216  HOH216      0.0000
   2754 O          10.1390   30.0590    5.1200 O.3   217  HOH217      0.0000
   2755 H1          9.3530   30.3130    4.5550 H     217  HOH217      0.0000
   2756 H2         10.4660   30.8560    5.6280 H     217  HOH217      0.0000
   2757 O          24.1000   17.2890   59.4300 O.3   218  HOH218      0.0000
   2758 H1         24.6180   16.4500   59.6040 H     218  HOH218      0.0000
   2759 H2         24.6620   17.9380   58.9180 H     218  HOH218      0.0000
   2760 O          12.7320   27.4340   15.6430 O.3   219  HOH219      0.0000
   2761 H1         13.3510   27.5600   16.4200 H     219  HOH219      0.0000
   2762 H2         11.7940   27.3220   15.9680 H     219  HOH219      0.0000
   2763 O           4.1630   23.4640    7.6990 O.3   220  HOH220      0.0000
   2764 H1          4.1420   24.2160    7.0400 H     220  HOH220      0.0000
   2765 H2          3.6670   22.6760    7.3350 H     220  HOH220      0.0000
   2766 O           2.4400   10.5210   11.2050 O.3   221  HOH221      0.0000
   2767 H1          3.1450   10.1050   10.6280 H     221  HOH221      0.0000
   2768 H2          2.0610   11.3280   10.7530 H     221  HOH221      0.0000
   2769 O          10.3130   31.4580   65.0570 O.3   222  HOH222      0.0000
   2770 H1          9.3430   31.2110   65.0180 H     222  HOH222      0.0000
   2771 H2         10.4400   32.2460   65.6580 H     222  HOH222      0.0000
   2772 O          18.2520   21.4730    7.2210 O.3   223  HOH223      0.0000
   2773 H1         17.4790   21.2810    6.6150 H     223  HOH223      0.0000
   2774 H2         18.0580   22.2800    7.7770 H     223  HOH223      0.0000
   2775 O          25.5340   14.6290   54.0960 O.3   224  HOH224      0.0000
   2776 H1         26.3140   14.4860   53.4850 H     224  HOH224      0.0000
   2777 H2         24.7490   14.0980   53.7780 H     224  HOH224      0.0000
   2778 O          21.5660    5.5890    6.0220 O.3   225  HOH225      0.0000
   2779 H1         20.9680    6.1740    5.4730 H     225  HOH225      0.0000
   2780 H2         21.0260    5.0790    6.6910 H     225  HOH225      0.0000
   2781 O          23.0890    9.1160   10.8530 O.3   226  HOH226      0.0000
   2782 H1         23.1200    8.8200   11.8090 H     226  HOH226      0.0000
   2783 H2         22.1540    9.3670   10.6040 H     226  HOH226      0.0000
   2784 O          23.4140   21.9430    4.9680 O.3   227  HOH227      0.0000
   2785 H1         23.5990   21.5570    4.0630 H     227  HOH227      0.0000
   2786 H2         24.2360   22.3850    5.3260 H     227  HOH227      0.0000
   2787 O           1.8090   11.8750   19.9150 O.3   228  HOH228      0.0000
   2788 H1          1.2130   11.6340   19.1480 H     228  HOH228      0.0000
   2789 H2          1.7740   11.1600   20.6130 H     228  HOH228      0.0000
   2790 O          16.8310    3.5720   71.8710 O.3   229  HOH229      0.0000
   2791 H1         16.7160    4.4490   72.3390 H     229  HOH229      0.0000
   2792 H2         16.6960    3.6890   70.8880 H     229  HOH229      0.0000
   2793 O          28.3000   25.2500   70.4010 O.3   230  HOH230      0.0000
   2794 H1         28.4570   25.7880   69.5720 H     230  HOH230      0.0000
   2795 H2         28.6270   25.7520   71.2010 H     230  HOH230      0.0000
   2796 O           3.7050   25.9450   21.1060 O.3   231  HOH231      0.0000
   2797 H1          3.0650   25.1850   21.2260 H     231  HOH231      0.0000
   2798 H2          3.4660   26.4660   20.2880 H     231  HOH231      0.0000
   2799 O          21.6010   25.4130   13.3810 O.3   232  HOH232      0.0000
   2800 H1         20.8550   24.7460   13.3760 H     232  HOH232      0.0000
   2801 H2         21.2470   26.3230   13.1660 H     232  HOH232      0.0000
   2802 O          31.1730    1.2840   11.6790 O.3   233  HOH233      0.0000
   2803 H1         32.0370    1.5000   11.2220 H     233  HOH233      0.0000
   2804 H2         31.3430    1.0340   12.6320 H     233  HOH233      0.0000
   2805 O          16.9310   27.7810    8.5600 O.3   234  HOH234      0.0000
   2806 H1         17.8630   27.8500    8.9200 H     234  HOH234      0.0000
   2807 H2         16.9420   27.3280    7.6690 H     234  HOH234      0.0000
   2808 O          14.7660   13.7970   64.2290 O.3   235  HOH235      0.0000
   2809 H1         14.1660   14.5630   64.4620 H     235  HOH235      0.0000
   2810 H2         15.2110   13.4490   65.0530 H     235  HOH235      0.0000
   2811 O           1.8180   16.7910   51.2040 O.3   236  HOH236      0.0000
   2812 H1          1.9760   17.4040   51.9800 H     236  HOH236      0.0000
   2813 H2          1.7820   17.3180   50.3550 H     236  HOH236      0.0000
   2814 O          10.6290   15.2760   18.1670 O.3   237  HOH237      0.0000
   2815 H1         11.0000   14.3520   18.2720 H     237  HOH237      0.0000
   2816 H2         10.9620   15.8640   18.9030 H     237  HOH237      0.0000
   2817 O          21.0000    8.7470    5.8080 O.3   238  HOH238      0.0000
   2818 H1         20.1500    9.2590    5.9370 H     238  HOH238      0.0000
   2819 H2         20.9980    8.3020    4.9130 H     238  HOH238      0.0000
   2820 O           3.3730    7.3630    9.8090 O.3   239  HOH239      0.0000
   2821 H1          3.1510    6.4270    9.5330 H     239  HOH239      0.0000
   2822 H2          2.9440    7.5710   10.6870 H     239  HOH239      0.0000
   2823 O           8.0630   22.6640    3.8370 O.3   240  HOH240      0.0000
   2824 H1          8.5760   21.8440    3.5790 H     240  HOH240      0.0000
   2825 H2          7.7780   22.6030    4.7920 H     240  HOH240      0.0000
   2826 O          10.8650   26.5660   62.1780 O.3   241  HOH241      0.0000
   2827 H1         10.6410   25.6910   62.6090 H     241  HOH241      0.0000
   2828 H2         10.9240   26.4530   61.1860 H     241  HOH241      0.0000
   2829 O          23.1170   11.7630   11.4310 O.3   242  HOH242      0.0000
   2830 H1         23.5220   12.6790   11.4540 H     242  HOH242      0.0000
   2831 H2         23.8230   11.0730   11.5870 H     242  HOH242      0.0000
   2832 O          24.6570   12.1240   57.5290 O.3   243  HOH243      0.0000
   2833 H1         23.9590   12.0870   58.2460 H     243  HOH243      0.0000
   2834 H2         24.2530   12.4540   56.6770 H     243  HOH243      0.0000
   2835 O          21.3800    3.7880    1.0320 O.3   244  HOH244      0.0000
   2836 H1         21.8120    2.8850    1.0000 H     244  HOH244      0.0000
   2837 H2         20.4480    3.7080    1.3840 H     244  HOH244      0.0000
   2838 O           2.4090   21.1060   63.5010 O.3   245  HOH245      0.0000
   2839 H1          2.0420   21.3520   62.6020 H     245  HOH245      0.0000
   2840 H2          2.0110   20.2410   63.8060 H     245  HOH245      0.0000
   2841 O           6.6620    9.8420    8.5950 O.3   246  HOH246      0.0000
   2842 H1          7.3770   10.5410    8.5720 H     246  HOH246      0.0000
   2843 H2          6.2810    9.7730    9.5170 H     246  HOH246      0.0000
   2844 O           5.6160   12.9080   68.0640 O.3   247  HOH247      0.0000
   2845 H1          4.8150   13.4380   68.3480 H     247  HOH247      0.0000
   2846 H2          5.8730   13.1530   67.1300 H     247  HOH247      0.0000
   2847 O           1.1100   25.5300   66.6310 O.3   248  HOH248      0.0000
   2848 H1          1.0700   24.5570   66.8650 H     248  HOH248      0.0000
   2849 H2          0.9910   25.6490   65.6460 H     248  HOH248      0.0000
   2850 O          33.2660   24.2560   14.6470 O.3   249  HOH249      0.0000
   2851 H1         33.2630   24.8970   13.8780 H     249  HOH249      0.0000
   2852 H2         33.0400   23.3370   14.3260 H     249  HOH249      0.0000
   2853 O           2.1800   26.4240   68.8220 O.3   250  HOH250      0.0000
   2854 H1          1.7510   27.0230   68.1440 H     250  HOH250      0.0000
   2855 H2          2.2230   26.8860   69.7070 H     250  HOH250      0.0000
   2856 O          13.3850    8.3610   54.7270 O.3   251  HOH251      0.0000
   2857 H1         14.2820    8.0590   54.4020 H     251  HOH251      0.0000
   2858 H2         12.7770    7.5750   54.8300 H     251  HOH251      0.0000
   2859 O          10.3830    4.0850   59.4720 O.3   252  HOH252      0.0000
   2860 H1         10.0230    3.8630   60.3790 H     252  HOH252      0.0000
   2861 H2         11.3090    3.7220   59.3740 H     252  HOH252      0.0000
   2862 O           6.3240   20.1030    7.8740 O.3   253  HOH253      0.0000
   2863 H1          6.3590   20.1070    8.8740 H     253  HOH253      0.0000
   2864 H2          6.5200   21.0180    7.5220 H     253  HOH253      0.0000
   2865 O           1.6080   30.4660    5.1290 O.3   254  HOH254      0.0000
   2866 H1          1.4380   29.5130    5.3840 H     254  HOH254      0.0000
   2867 H2          2.4490   30.7900    5.5610 H     254  HOH254      0.0000
   2868 O           3.2620   19.8630    8.4680 O.3   255  HOH255      0.0000
   2869 H1          4.1750   19.8410    8.8780 H     255  HOH255      0.0000
   2870 H2          3.0970   19.0210    7.9560 H     255  HOH255      0.0000
   2871 O          28.3210   11.8280    0.9810 O.3   256  HOH256      0.0000
   2872 H1         28.5270   10.9550    1.4240 H     256  HOH256      0.0000
   2873 H2         27.3420   12.0210    1.0460 H     256  HOH256      0.0000
   2874 O           3.4480   17.0880   54.9000 O.3   257  HOH257      0.0000
   2875 H1          3.8350   16.2100   55.1840 H     257  HOH257      0.0000
   2876 H2          3.1160   17.5900   55.6990 H     257  HOH257      0.0000
   2877 O           1.1400   26.0030   19.2210 O.3   258  HOH258      0.0000
   2878 H1          1.3330   26.7650   19.8410 H     258  HOH258      0.0000
   2879 H2          1.2610   25.1340   19.6990 H     258  HOH258      0.0000
   2880 O           1.0770   23.6070   56.9960 O.3   259  HOH259      0.0000
   2881 H1          0.9990   22.7460   57.5010 H     259  HOH259      0.0000
   2882 H2          1.0000   24.3800   57.6250 H     259  HOH259      0.0000
   2883 O           1.5750    1.2500   65.2760 O.3   260  HOH260      0.0000
   2884 H1          1.7100    1.9400   65.9890 H     260  HOH260      0.0000
   2885 H2          1.0000    1.6210   64.5470 H     260  HOH260      0.0000
   2886 O          26.8560   19.2890    1.3790 O.3   261  HOH261      0.0000
   2887 H1         27.6790   19.7110    0.9980 H     261  HOH261      0.0000
   2888 H2         27.0400   18.9510    2.3020 H     261  HOH261      0.0000
   2889 O           2.5870   28.0230   60.0590 O.3   262  HOH262      0.0000
   2890 H1          1.8020   28.6430   60.1060 H     262  HOH262      0.0000
   2891 H2          2.4860   27.4040   59.2810 H     262  HOH262      0.0000
   2892 O           9.6610   16.3890   59.8170 O.3   263  HOH263      0.0000
   2893 H1          9.6300   16.8530   60.7040 H     263  HOH263      0.0000
   2894 H2          9.4580   17.0380   59.0850 H     263  HOH263      0.0000
   2895 O           9.6710    7.2110   69.9050 O.3   264  HOH264      0.0000
   2896 H1         10.6340    7.1580   69.6340 H     264  HOH264      0.0000
   2897 H2          9.2460    6.3100   69.8310 H     264  HOH264      0.0000
   2898 O          17.9680   31.7060   58.7170 O.3   265  HOH265      0.0000
   2899 H1         17.6840   30.7470   58.6540 H     265  HOH265      0.0000
   2900 H2         17.4850   32.1560   59.4670 H     265  HOH265      0.0000
   2901 O          30.2330   26.6840   14.2570 O.3   266  HOH266      0.0000
   2902 H1         30.2320   27.2520   15.0820 H     266  HOH266      0.0000
   2903 H2         29.5030   26.9760   13.6410 H     266  HOH266      0.0000
   2904 O          10.3570   22.9110   14.7130 O.3   267  HOH267      0.0000
   2905 H1         10.8450   22.1060   15.0530 H     267  HOH267      0.0000
   2906 H2          9.3760   22.7240   14.6740 H     267  HOH267      0.0000
   2907 O          24.0450   19.5980   13.6220 O.3   268  HOH268      0.0000
   2908 H1         24.2860   20.4310   14.1230 H     268  HOH268      0.0000
   2909 H2         23.9800   19.7940   12.6440 H     268  HOH268      0.0000
   2910 O          25.2200   24.7260   57.9530 O.3   269  HOH269      0.0000
   2911 H1         24.2550   24.5750   57.7330 H     269  HOH269      0.0000
   2912 H2         25.7940   24.4450   57.1840 H     269  HOH269      0.0000
   2913 O          21.1640   17.1280   67.4520 O.3   270  HOH270      0.0000
   2914 H1         21.7330   17.4900   68.1930 H     270  HOH270      0.0000
   2915 H2         21.7270   16.9510   66.6460 H     270  HOH270      0.0000
   2916 O          33.1030   24.3790   17.8730 O.3   271  HOH271      0.0000
   2917 H1         33.2600   25.3180   18.1850 H     271  HOH271      0.0000
   2918 H2         32.5960   24.3850   17.0120 H     271  HOH271      0.0000
   2919 O           6.0840   26.4870   13.8270 O.3   272  HOH272      0.0000
   2920 H1          5.6720   25.8740   14.5030 H     272  HOH272      0.0000
   2921 H2          6.2280   27.3900   14.2300 H     272  HOH272      0.0000
   2922 O          24.4960   13.8680   14.4790 O.3   273  HOH273      0.0000
   2923 H1         24.7730   13.0820   13.9250 H     273  HOH273      0.0000
   2924 H2         24.2970   13.5750   15.4140 H     273  HOH273      0.0000
   2925 O           8.4930    3.4320   65.8610 O.3   274  HOH274      0.0000
   2926 H1          8.6680    4.4020   65.6830 H     274  HOH274      0.0000
   2927 H2          9.2270    2.8760   65.4730 H     274  HOH274      0.0000
   2928 O          16.5570   10.9030   63.2300 O.3   275  HOH275      0.0000
   2929 H1         17.5130   11.0850   62.9920 H     275  HOH275      0.0000
   2930 H2         16.1520   11.7110   63.6560 H     275  HOH275      0.0000
   2931 O           4.4290    3.3700   11.1260 O.3   276  HOH276      0.0000
   2932 H1          5.1870    3.5510   11.7540 H     276  HOH276      0.0000
   2933 H2          4.6090    3.7960   10.2400 H     276  HOH276      0.0000
   2934 O          13.0890   11.3350   70.7920 O.3   277  HOH277      0.0000
   2935 H1         12.5180   10.5220   70.6700 H     277  HOH277      0.0000
   2936 H2         13.1970   11.5340   71.7650 H     277  HOH277      0.0000
   2937 O          20.7660    7.7640   72.1370 O.3   278  HOH278      0.0000
   2938 H1         21.5670    8.1840   72.5660 H     278  HOH278      0.0000
   2939 H2         20.4300    8.3460   71.3980 H     278  HOH278      0.0000
   2940 O           7.3380   23.2950   59.2940 O.3   279  HOH279      0.0000
   2941 H1          6.3560   23.2280   59.1120 H     279  HOH279      0.0000
   2942 H2          7.5190   24.0550   59.9170 H     279  HOH279      0.0000
   2943 O          30.2380    4.6830   18.8260 O.3   280  HOH280      0.0000
   2944 H1         29.4730    4.0460   18.9280 H     280  HOH280      0.0000
   2945 H2         29.8940    5.6170   18.7330 H     280  HOH280      0.0000
   2946 O          26.6830    9.6820   14.5380 O.3   281  HOH281      0.0000
   2947 H1         27.0600    9.9460   15.4280 H     281  HOH281      0.0000
   2948 H2         27.1310    8.8510   14.2110 H     281  HOH281      0.0000
   2949 O          17.4090   18.2960    4.3390 O.3   282  HOH282      0.0000
   2950 H1         18.0020   18.8930    3.7970 H     282  HOH282      0.0000
   2951 H2         17.8760   18.0210    5.1790 H     282  HOH282      0.0000
   2952 O          29.2200    7.1220    2.5130 O.3   283  HOH283      0.0000
   2953 H1         28.8780    7.2350    1.5790 H     283  HOH283      0.0000
   2954 H2         28.5840    7.5390    3.1620 H     283  HOH283      0.0000
   2955 O          15.4620    4.6510   61.7430 O.3   284  HOH284      0.0000
   2956 H1         14.4620    4.6310   61.6960 H     284  HOH284      0.0000
   2957 H2         15.8140    5.4140   61.2010 H     284  HOH284      0.0000
   2958 O           1.1140   18.1380   69.7270 O.3   285  HOH285      0.0000
   2959 H1          1.7520   17.4430   70.0610 H     285  HOH285      0.0000
   2960 H2          0.9990   18.0480   68.7380 H     285  HOH285      0.0000
   2961 O           1.7940    1.7670    8.9730 O.3   286  HOH286      0.0000
   2962 H1          1.0000    1.7940    8.3630 H     286  HOH286      0.0000
   2963 H2          1.5410    2.1080    9.8780 H     286  HOH286      0.0000
   2964 O           6.8890    6.2810   14.8120 O.3   287  HOH287      0.0000
   2965 H1          7.7620    6.5600   14.4090 H     287  HOH287      0.0000
   2966 H2          7.0370    5.9180   15.7310 H     287  HOH287      0.0000
   2967 O          29.0670    3.1040   10.5430 O.3   288  HOH288      0.0000
   2968 H1         29.0030    4.0820   10.3380 H     288  HOH288      0.0000
   2969 H2         30.0250    2.8330   10.6200 H     288  HOH288      0.0000
   2970 O           9.1130   17.6630   55.1940 O.3   289  HOH289      0.0000
   2971 H1          8.7250   16.8800   54.7060 H     289  HOH289      0.0000
   2972 H2          9.8940   17.3690   55.7450 H     289  HOH289      0.0000
   2973 O           5.4090    8.4280   57.0680 O.3   290  HOH290      0.0000
   2974 H1          5.0170    7.5780   56.7120 H     290  HOH290      0.0000
   2975 H2          5.0520    8.6110   57.9830 H     290  HOH290      0.0000
   2976 O          11.4300   29.0880   11.9970 O.3   291  HOH291      0.0000
   2977 H1         11.7760   28.8030   11.1020 H     291  HOH291      0.0000
   2978 H2         11.1820   30.0550   11.9760 H     291  HOH291      0.0000
   2979 O          24.9300    6.4730   72.7830 O.3   292  HOH292      0.0000
   2980 H1         25.8310    6.0670   72.6230 H     292  HOH292      0.0000
   2981 H2         24.6960    7.0910   72.0330 H     292  HOH292      0.0000
   2982 O          14.9210   21.7780   57.5690 O.3   293  HOH293      0.0000
   2983 H1         14.7740   20.8750   57.1620 H     293  HOH293      0.0000
   2984 H2         14.6040   21.7820   58.5170 H     293  HOH293      0.0000
   2985 O          31.4820   11.2990    8.0110 O.3   294  HOH294      0.0000
   2986 H1         32.1480   11.0930    7.2920 H     294  HOH294      0.0000
   2987 H2         30.6060   11.5520    7.6030 H     294  HOH294      0.0000
   2988 O          17.2950   15.5180    3.7640 O.3   295  HOH295      0.0000
   2989 H1         18.1530   15.4030    3.2620 H     295  HOH295      0.0000
   2990 H2         17.4370   15.3170    4.7330 H     295  HOH295      0.0000
   2991 O          22.0840    1.9910   14.6110 O.3   296  HOH296      0.0000
   2992 H1         21.1440    2.1680   14.9060 H     296  HOH296      0.0000
   2993 H2         22.6900    1.9560   15.4040 H     296  HOH296      0.0000
   2994 O          18.0200    5.7400    6.0380 O.3   297  HOH297      0.0000
   2995 H1         18.9620    5.7730    6.3740 H     297  HOH297      0.0000
   2996 H2         17.6160    4.8480    6.2390 H     297  HOH297      0.0000
   2997 O          26.4400    4.7410   52.9070 O.3   298  HOH298      0.0000
   2998 H1         25.6840    5.3120   53.2330 H     298  HOH298      0.0000
   2999 H2         26.6780    4.9930   51.9700 H     298  HOH298      0.0000
   3000 O           6.6480   10.7770   71.3280 O.3   299  HOH299      0.0000
   3001 H1          6.7700    9.8800   71.7550 H     299  HOH299      0.0000
   3002 H2          6.7120   11.4960   72.0190 H     299  HOH299      0.0000
   3003 O          31.4240   28.8450   66.5190 O.3   300  HOH300      0.0000
   3004 H1         32.3560   28.5150   66.3600 H     300  HOH300      0.0000
   3005 H2         30.8800   28.7430   65.6870 H     300  HOH300      0.0000
   3006 O          31.1900   10.2360   20.6100 O.3   301  HOH301      0.0000
   3007 H1         31.1040    9.4120   20.0470 H     301  HOH301      0.0000
   3008 H2         30.7000   10.9940   20.1820 H     301  HOH301      0.0000
   3009 O           7.1600   27.5570   69.5070 O.3   302  HOH302      0.0000
   3010 H1          7.7650   26.9200   69.0260 H     302  HOH302      0.0000
   3011 H2          6.9850   27.2280   70.4340 H     302  HOH302      0.0000
   3012 O          11.4570   21.5570    1.4620 O.3   303  HOH303      0.0000
   3013 H1         12.3190   21.7310    0.9830 H     303  HOH303      0.0000
   3014 H2         11.5220   21.8710    2.4080 H     303  HOH303      0.0000
   3015 O          27.7150    6.3300   66.9130 O.3   304  HOH304      0.0000
   3016 H1         26.9310    6.4650   66.3060 H     304  HOH304      0.0000
   3017 H2         27.5520    6.7840   67.7880 H     304  HOH304      0.0000
   3018 O          23.9050   24.1010   67.5940 O.3   305  HOH305      0.0000
   3019 H1         23.1720   23.8270   68.2180 H     305  HOH305      0.0000
   3020 H2         24.0250   23.4100   66.8820 H     305  HOH305      0.0000
   3021 O          11.8340   12.1650   68.4110 O.3   306  HOH306      0.0000
   3022 H1         11.5580   12.0010   69.3600 H     306  HOH306      0.0000
   3023 H2         11.5960   11.3770   67.8450 H     306  HOH306      0.0000
   3024 O           4.0560    4.3980   14.8790 O.3   307  HOH307      0.0000
   3025 H1          3.9760    5.1050   14.1760 H     307  HOH307      0.0000
   3026 H2          3.7160    4.7440   15.7520 H     307  HOH307      0.0000
   3027 O          19.8970   23.7400   71.9360 O.3   308  HOH308      0.0000
   3028 H1         20.5160   24.3610   72.4190 H     308  HOH308      0.0000
   3029 H2         19.7410   24.0680   71.0050 H     308  HOH308      0.0000
   3030 O           8.2110   22.5310   20.4810 O.3   309  HOH309      0.0000
   3031 H1          9.0310   23.0310   20.1980 H     309  HOH309      0.0000
   3032 H2          7.6050   23.1340   21.0000 H     309  HOH309      0.0000
   3033 O          25.5030   21.4040   16.0950 O.3   310  HOH310      0.0000
   3034 H1         24.7820   22.0310   15.7950 H     310  HOH310      0.0000
   3035 H2         26.2280   21.3640   15.4070 H     310  HOH310      0.0000
   3036 O           2.5320   13.1930    4.7680 O.3   311  HOH311      0.0000
   3037 H1          1.5760   12.9250    4.8940 H     311  HOH311      0.0000
   3038 H2          2.7020   13.4130    3.8080 H     311  HOH311      0.0000
   3039 O          29.4090   10.2240    3.7500 O.3   312  HOH312      0.0000
   3040 H1         29.3700   11.1770    3.4440 H     312  HOH312      0.0000
   3041 H2         29.3400    9.6100    2.9640 H     312  HOH312      0.0000
   3042 O           9.2390   26.6580   59.7850 O.3   313  HOH313      0.0000
   3043 H1          9.6050   25.8020   59.4150 H     313  HOH313      0.0000
   3044 H2          9.8360   27.4200   59.5390 H     313  HOH313      0.0000
   3045 O           8.4140   17.9800   65.1610 O.3   314  HOH314      0.0000
   3046 H1          8.4140   18.4710   66.0330 H     314  HOH314      0.0000
   3047 H2          7.9210   18.5090   64.4710 H     314  HOH314      0.0000
   3048 O          16.2730   10.9340   65.7110 O.3   315  HOH315      0.0000
   3049 H1         15.5310   11.5150   66.0490 H     315  HOH315      0.0000
   3050 H2         17.0930   11.0700   66.2650 H     315  HOH315      0.0000
   3051 O          29.9400   15.5190   73.5670 O.3   316  HOH316      0.0000
   3052 H1         30.4460   16.2660   74.0000 H     316  HOH316      0.0000
   3053 H2         30.3970   14.6480   73.7450 H     316  HOH316      0.0000
   3054 O          25.5360   28.4910   70.3660 O.3   317  HOH317      0.0000
   3055 H1         24.9810   29.3200   70.2790 H     317  HOH317      0.0000
   3056 H2         25.7330   28.3120   71.3290 H     317  HOH317      0.0000
   3057 O           7.5050   30.4610   14.6900 O.3   318  HOH318      0.0000
   3058 H1          7.3750   31.4520   14.7470 H     318  HOH318      0.0000
   3059 H2          6.6190   30.0040   14.6170 H     318  HOH318      0.0000
   3060 O          13.2350   13.6040   66.9330 O.3   319  HOH319      0.0000
   3061 H1         14.1900   13.9050   66.9600 H     319  HOH319      0.0000
   3062 H2         12.7570   14.0530   66.1790 H     319  HOH319      0.0000
   3063 O           4.1240   12.0750   10.5980 O.3   320  HOH320      0.0000
   3064 H1          4.3520   13.0260   10.3840 H     320  HOH320      0.0000
   3065 H2          4.5960   11.7900   11.4320 H     320  HOH320      0.0000
   3066 O           1.5440   23.2170   69.0860 O.3   321  HOH321      0.0000
   3067 H1          1.6010   24.2160   69.0780 H     321  HOH321      0.0000
   3068 H2          1.0010   22.8990   68.3100 H     321  HOH321      0.0000
   3069 O          29.0440   24.2060   10.6980 O.3   322  HOH322      0.0000
   3070 H1         29.0520   23.2120   10.8200 H     322  HOH322      0.0000
   3071 H2         28.1120   24.5540   10.7920 H     322  HOH322      0.0000
   3072 O           2.0600    2.6670   73.5940 O.3   323  HOH323      0.0000
   3073 H1          2.0280    2.0850   72.7800 H     323  HOH323      0.0000
   3074 H2          2.7000    3.4210   73.4500 H     323  HOH323      0.0000
   3075 O           1.0000    7.8280   16.7690 O.3   324  HOH324      0.0000
   3076 H1          1.0260    8.7520   16.3830 H     324  HOH324      0.0000
   3077 H2          1.1690    7.1530   16.0520 H     324  HOH324      0.0000
   3078 O          15.4100   19.5380   14.2220 O.3   325  HOH325      0.0000
   3079 H1         15.0470   19.5150   15.1550 H     325  HOH325      0.0000
   3080 H2         16.1610   18.8850   14.1310 H     325  HOH325      0.0000
   3081 O          31.5010    8.6690   59.5850 O.3   326  HOH326      0.0000
   3082 H1         31.3780    7.7140   59.8580 H     326  HOH326      0.0000
   3083 H2         31.9280    8.7140   58.6830 H     326  HOH326      0.0000
   3084 O          32.7120   27.0580    1.7410 O.3   327  HOH327      0.0000
   3085 H1         33.2440   27.0720    2.5880 H     327  HOH327      0.0000
   3086 H2         33.2620   26.6790    0.9980 H     327  HOH327      0.0000
   3087 O          29.1490   24.7720   14.2000 O.3   328  HOH328      0.0000
   3088 H1         28.4580   24.3000   14.7500 H     328  HOH328      0.0000
   3089 H2         29.0210   24.5580   13.2330 H     328  HOH328      0.0000
   3090 O          32.1460   16.0370   71.4660 O.3   329  HOH329      0.0000
   3091 H1         31.7890   16.2030   70.5460 H     329  HOH329      0.0000
   3092 H2         31.4840   15.5120   72.0000 H     329  HOH329      0.0000
   3093 O          13.7210    4.2670   73.2490 O.3   330  HOH330      0.0000
   3094 H1         13.2050    4.9680   73.7450 H     330  HOH330      0.0000
   3095 H2         13.1830    3.9300   72.4780 H     330  HOH330      0.0000
   3096 O          15.6920   12.8810   17.0550 O.3   331  HOH331      0.0000
   3097 H1         15.0670   12.2450   16.6000 H     331  HOH331      0.0000
   3098 H2         15.9030   13.6460   16.4480 H     331  HOH331      0.0000
   3099 O          28.0310    3.5340   15.6070 O.3   332  HOH332      0.0000
   3100 H1         27.2200    4.0890   15.4150 H     332  HOH332      0.0000
   3101 H2         27.7750    2.5720   15.6900 H     332  HOH332      0.0000
   3102 O           4.4710   18.2490   63.9780 O.3   333  HOH333      0.0000
   3103 H1          3.7960   18.9610   63.7800 H     333  HOH333      0.0000
   3104 H2          5.3890   18.5800   63.7620 H     333  HOH333      0.0000
   3105 O           9.1890   32.2400   15.7710 O.3   334  HOH334      0.0000
   3106 H1          9.5370   31.8140   14.9340 H     334  HOH334      0.0000
   3107 H2          9.6230   31.8270   16.5700 H     334  HOH334      0.0000
   3108 O          29.4840    9.8660   56.5440 O.3   335  HOH335      0.0000
   3109 H1         28.5580    9.4900   56.4860 H     335  HOH335      0.0000
   3110 H2         30.1010    9.3470   55.9530 H     335  HOH335      0.0000
   3111 O          10.8790   14.7770    7.3840 O.3   336  HOH336      0.0000
   3112 H1         10.0710   14.2200    7.5830 H     336  HOH336      0.0000
   3113 H2         10.9320   14.9630    6.4030 H     336  HOH336      0.0000
   3114 O          10.9940    9.9400   63.1170 O.3   337  HOH337      0.0000
   3115 H1         10.0630    9.9490   62.7480 H     337  HOH337      0.0000
   3116 H2         10.9750   10.1280   64.0980 H     337  HOH337      0.0000
   3117 O           6.5710   18.7780   68.1220 O.3   338  HOH338      0.0000
   3118 H1          6.6360   19.7750   68.0610 H     338  HOH338      0.0000
   3119 H2          6.5670   18.4940   69.0810 H     338  HOH338      0.0000
   3120 O          12.7250   18.0390   56.4350 O.3   339  HOH339      0.0000
   3121 H1         12.5600   17.2570   55.8320 H     339  HOH339      0.0000
   3122 H2         12.8290   17.7270   57.3780 H     339  HOH339      0.0000
   3123 O          12.1100   12.9920    5.9510 O.3   340  HOH340      0.0000
   3124 H1         11.4670   12.7750    6.6870 H     340  HOH340      0.0000
   3125 H2         12.4490   12.1500    5.5340 H     340  HOH340      0.0000
   3126 O          12.0970   23.5840   68.6860 O.3   341  HOH341      0.0000
   3127 H1         12.2280   22.7120   68.2120 H     341  HOH341      0.0000
   3128 H2         11.2100   23.9750   68.4430 H     341  HOH341      0.0000
   3129 O          29.3040   19.5890   10.6260 O.3   342  HOH342      0.0000
   3130 H1         29.4330   20.3940   10.0450 H     342  HOH342      0.0000
   3131 H2         30.0910   19.4750   11.2310 H     342  HOH342      0.0000
   3132 O           4.8890    7.0340   68.0790 O.3   343  HOH343      0.0000
   3133 H1          5.4680    6.2750   68.3810 H     343  HOH343      0.0000
   3134 H2          4.9980    7.1760   67.0960 H     343  HOH343      0.0000
   3135 O           2.0860   10.9950    6.4160 O.3   344  HOH344      0.0000
   3136 H1          1.8130   11.8740    6.8110 H     344  HOH344      0.0000
   3137 H2          1.5840   10.8310    5.5680 H     344  HOH344      0.0000
   3138 O          31.5200    2.4530   69.1800 O.3   345  HOH345      0.0000
   3139 H1         31.3650    3.3570   69.5810 H     345  HOH345      0.0000
   3140 H2         31.1440    2.4210   68.2550 H     345  HOH345      0.0000
   3141 O          17.7600   32.2340   67.4350 O.3   346  HOH346      0.0000
   3142 H1         16.8390   31.9940   67.7480 H     346  HOH346      0.0000
   3143 H2         18.0000   31.6910   66.6310 H     346  HOH346      0.0000
   3144 O          18.4160    8.9880    7.4340 O.3   347  HOH347      0.0000
   3145 H1         18.8550    8.1010    7.2870 H     347  HOH347      0.0000
   3146 H2         18.0450    9.3330    6.5730 H     347  HOH347      0.0000
   3147 O          27.4930   16.4270   65.4510 O.3   348  HOH348      0.0000
   3148 H1         28.3820   16.0510   65.1850 H     348  HOH348      0.0000
   3149 H2         27.4320   16.4860   66.4470 H     348  HOH348      0.0000
   3150 O          17.0540   25.7750   15.0900 O.3   349  HOH349      0.0000
   3151 H1         17.4350   25.0330   15.6440 H     349  HOH349      0.0000
   3152 H2         16.6180   25.4010   14.2730 H     349  HOH349      0.0000
   3153 O          13.6600   26.7710   21.4690 O.3   350  HOH350      0.0000
   3154 H1         13.4580   26.1330   20.7240 H     350  HOH350      0.0000
   3155 H2         14.4530   26.4510   21.9860 H     350  HOH350      0.0000
   3156 O          10.9110   21.9000   64.0160 O.3   351  HOH351      0.0000
   3157 H1         11.7150   22.4130   63.7120 H     351  HOH351      0.0000
   3158 H2         11.0660   21.5360   64.9340 H     351  HOH351      0.0000
   3159 O          22.3010   19.0710   66.7740 O.3   352  HOH352      0.0000
   3160 H1         22.7990   18.7560   65.9640 H     352  HOH352      0.0000
   3161 H2         21.3250   19.1360   66.5700 H     352  HOH352      0.0000
   3162 O          31.4410   32.0670   14.7740 O.3   353  HOH353      0.0000
   3163 H1         32.3100   31.8890   14.3100 H     353  HOH353      0.0000
   3164 H2         31.2210   31.3110   15.3890 H     353  HOH353      0.0000
   3165 O           3.8880   28.4180   70.1190 O.3   354  HOH354      0.0000
   3166 H1          4.7130   28.9770   70.0240 H     354  HOH354      0.0000
   3167 H2          3.1000   28.9070   69.7480 H     354  HOH354      0.0000
   3168 O          13.3900   26.6900   61.0920 O.3   355  HOH355      0.0000
   3169 H1         13.0170   25.8230   61.4260 H     355  HOH355      0.0000
   3170 H2         13.2330   26.7720   60.1080 H     355  HOH355      0.0000
   3171 O          26.9140    4.4050    4.8450 O.3   356  HOH356      0.0000
   3172 H1         27.3680    3.6080    4.4450 H     356  HOH356      0.0000
   3173 H2         26.1540    4.6920    4.2640 H     356  HOH356      0.0000
   3174 O          29.9180   29.1080    9.2200 O.3   357  HOH357      0.0000
   3175 H1         29.4470   28.8400   10.0620 H     357  HOH357      0.0000
   3176 H2         29.8250   30.0920    9.0750 H     357  HOH357      0.0000
   3177 O          10.6010    6.9220   23.4990 O.3   358  HOH358      0.0000
   3178 H1         11.3150    7.3120   22.9150 H     358  HOH358      0.0000
   3179 H2          9.9350    6.4290   22.9420 H     358  HOH358      0.0000
   3180 O          24.3710   27.6950    8.6790 O.3   359  HOH359      0.0000
   3181 H1         24.7690   28.5050    9.1120 H     359  HOH359      0.0000
   3182 H2         24.8270   27.5140    7.8080 H     359  HOH359      0.0000
   3183 O          19.5210   25.9670   54.7780 O.3   360  HOH360      0.0000
   3184 H1         19.9590   25.9710   55.6780 H     360  HOH360      0.0000
   3185 H2         19.3040   25.0300   54.5070 H     360  HOH360      0.0000
   3186 O          16.1940   20.2840    4.5140 O.3   361  HOH361      0.0000
   3187 H1         15.3340   20.0890    4.9870 H     361  HOH361      0.0000
   3188 H2         16.1250   20.0130    3.5540 H     361  HOH361      0.0000
   3189 O          30.5350   17.2480    5.6280 O.3   362  HOH362      0.0000
   3190 H1         30.1320   17.2320    6.5440 H     362  HOH362      0.0000
   3191 H2         29.8130   17.2470    4.9370 H     362  HOH362      0.0000
   3192 O           5.3390    5.6140   59.4690 O.3   363  HOH363      0.0000
   3193 H1          4.6930    6.2590   59.0580 H     363  HOH363      0.0000
   3194 H2          5.7890    6.0340   60.2560 H     363  HOH363      0.0000
   3195 O          11.7000   18.4750   71.3310 O.3   364  HOH364      0.0000
   3196 H1         12.6590   18.7630   71.3190 H     364  HOH364      0.0000
   3197 H2         11.5890   17.6790   71.9250 H     364  HOH364      0.0000
   3198 O           3.0020    8.2620   68.4060 O.3   365  HOH365      0.0000
   3199 H1          2.8360    7.6720   67.6150 H     365  HOH365      0.0000
   3200 H2          2.2130    8.8550   68.5620 H     365  HOH365      0.0000
   3201 O          23.2780   24.2730    5.9210 O.3   366  HOH366      0.0000
   3202 H1         23.6570   25.1700    6.1550 H     366  HOH366      0.0000
   3203 H2         22.9050   24.2900    4.9950 H     366  HOH366      0.0000
   3204 O          10.9810   19.4570   57.9280 O.3   367  HOH367      0.0000
   3205 H1         11.2700   19.5950   56.9800 H     367  HOH367      0.0000
   3206 H2         10.2240   18.8060   57.9630 H     367  HOH367      0.0000
   3207 O           8.8950   31.8410   68.3420 O.3   368  HOH368      0.0000
   3208 H1          9.4590   32.2410   67.6180 H     368  HOH368      0.0000
   3209 H2          8.0310   31.5130   67.9610 H     368  HOH368      0.0000
   3210 O          14.5430   27.9690   69.1980 O.3   369  HOH369      0.0000
   3211 H1         14.7340   28.8080   68.6860 H     369  HOH369      0.0000
   3212 H2         13.8570   28.1480   69.9020 H     369  HOH369      0.0000
   3213 O          25.5110   18.9100   65.2640 O.3   370  HOH370      0.0000
   3214 H1         25.6910   18.7170   66.2300 H     370  HOH370      0.0000
   3215 H2         24.7120   19.5040   65.1770 H     370  HOH370      0.0000
   3216 O          30.2360   10.2290   11.1680 O.3   371  HOH371      0.0000
   3217 H1         30.9160    9.5730   11.4990 H     371  HOH371      0.0000
   3218 H2         30.4920   10.5580   10.2600 H     371  HOH371      0.0000
   3219 O          12.3140   23.6880   55.9840 O.3   372  HOH372      0.0000
   3220 H1         11.5090   24.2450   55.7780 H     372  HOH372      0.0000
   3221 H2         12.0770   22.9750   56.6440 H     372  HOH372      0.0000
   3222 O          32.0260    6.6060   13.1290 O.3   373  HOH373      0.0000
   3223 H1         31.3520    6.0420   13.6100 H     373  HOH373      0.0000
   3224 H2         32.3300    6.1410   12.2990 H     373  HOH373      0.0000
   3225 O          16.6130    1.4790   19.7470 O.3   374  HOH374      0.0000
   3226 H1         17.5070    1.3510   20.1780 H     374  HOH374      0.0000
   3227 H2         16.6120    1.0680   18.8350 H     374  HOH374      0.0000
   3228 O          27.7490   10.3640    8.1930 O.3   375  HOH375      0.0000
   3229 H1         28.4020   11.0140    7.8010 H     375  HOH375      0.0000
   3230 H2         26.9470   10.2870    7.6020 H     375  HOH375      0.0000
   3231 O          13.9800   10.8440   15.2970 O.3   376  HOH376      0.0000
   3232 H1         13.6480   10.1530   14.6530 H     376  HOH376      0.0000
   3233 H2         13.2470   11.4860   15.5180 H     376  HOH376      0.0000
   3234 O           8.2590   26.4510    8.2090 O.3   377  HOH377      0.0000
   3235 H1          7.5120   26.7170    8.8210 H     377  HOH377      0.0000
   3236 H2          9.1250   26.8150    8.5500 H     377  HOH377      0.0000
   3237 O          22.7530   18.4600   10.6980 O.3   378  HOH378      0.0000
   3238 H1         23.0570   17.5060   10.6900 H     378  HOH378      0.0000
   3239 H2         21.7800   18.5060   10.9200 H     378  HOH378      0.0000
   3240 O          11.1320   28.3180   14.0670 O.3   379  HOH379      0.0000
   3241 H1         10.3960   27.7530   13.6890 H     379  HOH379      0.0000
   3242 H2         10.7650   28.9370   14.7600 H     379  HOH379      0.0000
   3243 O           6.7720    3.6580    9.8620 O.3   380  HOH380      0.0000
   3244 H1          6.9120    4.5910   10.1950 H     380  HOH380      0.0000
   3245 H2          7.1620    3.0020   10.5080 H     380  HOH380      0.0000
   3246 O          18.4810    2.0970   73.5640 O.3   381  HOH381      0.0000
   3247 H1         18.0580    2.8930   74.0000 H     381  HOH381      0.0000
   3248 H2         18.3400    2.1350   72.5750 H     381  HOH381      0.0000
   3249 O          16.7140   22.8890   73.3560 O.3   382  HOH382      0.0000
   3250 H1         17.2330   22.1190   73.7290 H     382  HOH382      0.0000
   3251 H2         17.1510   23.2250   72.5220 H     382  HOH382      0.0000
   3252 O           7.8600   31.5810   62.9200 O.3   383  HOH383      0.0000
   3253 H1          8.6190   32.1800   63.1810 H     383  HOH383      0.0000
   3254 H2          7.6070   30.9950   63.6880 H     383  HOH383      0.0000
   3255 O           9.5890   28.9120    9.8200 O.3   384  HOH384      0.0000
   3256 H1          9.5950   28.8070   10.8160 H     384  HOH384      0.0000
   3257 H2         10.3930   28.4700    9.4250 H     384  HOH384      0.0000
   3258 O          30.6570   10.7200   59.3690 O.3   385  HOH385      0.0000
   3259 H1         31.3020   10.8220   58.6100 H     385  HOH385      0.0000
   3260 H2         30.8410   11.4090   60.0690 H     385  HOH385      0.0000
   3261 O          10.5550   13.0320   13.9760 O.3   386  HOH386      0.0000
   3262 H1         10.8970   13.7730   13.3970 H     386  HOH386      0.0000
   3263 H2         11.1160   12.9550   14.8000 H     386  HOH386      0.0000
   3264 O          19.4940    6.5350   14.5000 O.3   387  HOH387      0.0000
   3265 H1         20.4550    6.3730   14.2720 H     387  HOH387      0.0000
   3266 H2         19.3260    6.3030   15.4570 H     387  HOH387      0.0000
   3267 O          20.3670   14.3900    1.2510 O.3   388  HOH388      0.0000
   3268 H1         19.7970   13.6110    0.9880 H     388  HOH388      0.0000
   3269 H2         20.2930   14.5500    2.2350 H     388  HOH388      0.0000
   3270 O          22.4650   15.7120   20.4140 O.3   389  HOH389      0.0000
   3271 H1         21.5610   16.0130   20.1040 H     389  HOH389      0.0000
   3272 H2         22.4540   15.5590   21.4010 H     389  HOH389      0.0000
   3273 O          13.0370   19.6180   16.2760 O.3   390  HOH390      0.0000
   3274 H1         13.2090   18.6550   16.0620 H     390  HOH390      0.0000
   3275 H2         12.1330   19.8850   15.9430 H     390  HOH390      0.0000
   3276 O          21.9110   16.2940    6.4670 O.3   391  HOH391      0.0000
   3277 H1         22.7360   15.8870    6.0720 H     391  HOH391      0.0000
   3278 H2         21.6730   15.8250    7.3170 H     391  HOH391      0.0000
   3279 O          11.2990   17.4200   16.3060 O.3   392  HOH392      0.0000
   3280 H1         10.5300   16.8900   16.6670 H     392  HOH392      0.0000
   3281 H2         12.0230   16.8050   15.9960 H     392  HOH392      0.0000
   3282 O          22.8990    4.7330    8.6760 O.3   393  HOH393      0.0000
   3283 H1         22.9500    3.8810    8.1540 H     393  HOH393      0.0000
   3284 H2         22.3780    4.5890    9.5160 H     393  HOH393      0.0000
   3285 O           4.5420   20.2160   15.5070 O.3   394  HOH394      0.0000
   3286 H1          4.2190   20.7100   14.6990 H     394  HOH394      0.0000
   3287 H2          3.9540   20.4200   16.2900 H     394  HOH394      0.0000
   3288 O          13.9910    2.9910   59.9740 O.3   395  HOH395      0.0000
   3289 H1         14.1790    2.1160   59.5250 H     395  HOH395      0.0000
   3290 H2         13.5180    2.8360   60.8400 H     395  HOH395      0.0000
   3291 O          14.9180    8.3760   66.2090 O.3   396  HOH396      0.0000
   3292 H1         15.0280    9.3180   66.5320 H     396  HOH396      0.0000
   3293 H2         14.0990    8.3030   65.6420 H     396  HOH396      0.0000
   3294 O          16.5710   16.3970   21.8730 O.3   397  HOH397      0.0000
   3295 H1         16.6280   16.5120   20.8810 H     397  HOH397      0.0000
   3296 H2         15.9300   15.6630   22.0960 H     397  HOH397      0.0000
   3297 O          21.5350   25.5470   16.1400 O.3   398  HOH398      0.0000
   3298 H1         22.0070   26.2810   16.6300 H     398  HOH398      0.0000
   3299 H2         20.9680   25.9310   15.4120 H     398  HOH398      0.0000
   3300 O          14.6830    6.8210   15.0390 O.3   399  HOH399      0.0000
   3301 H1         14.9280    7.7050   15.4400 H     399  HOH399      0.0000
   3302 H2         13.7980    6.5190   15.3910 H     399  HOH399      0.0000
   3303 O          28.3510   19.3460   63.0640 O.3   400  HOH400      0.0000
   3304 H1         28.9060   19.6000   62.2700 H     400  HOH400      0.0000
   3305 H2         27.9340   20.1610   63.4640 H     400  HOH400      0.0000
   3306 O          23.4090    9.1740   58.1610 O.3   401  HOH401      0.0000
   3307 H1         24.1710    9.4440   58.7510 H     401  HOH401      0.0000
   3308 H2         22.6810    8.7640   58.7100 H     401  HOH401      0.0000
   3309 O           7.4240    7.2610   18.4410 O.3   402  HOH402      0.0000
   3310 H1          6.7920    8.0320   18.5230 H     402  HOH402      0.0000
   3311 H2          7.0400    6.5670   17.8330 H     402  HOH402      0.0000
   3312 O          27.3920   32.1310   20.7430 O.3   403  HOH403      0.0000
   3313 H1         27.9550   32.2400   19.9230 H     403  HOH403      0.0000
   3314 H2         26.6890   31.4390   20.5860 H     403  HOH403      0.0000
   3315 O           3.8730   12.2000   71.1530 O.3   404  HOH404      0.0000
   3316 H1          4.6380   12.1930   71.7990 H     404  HOH404      0.0000
   3317 H2          4.1800   12.5410   70.2650 H     404  HOH404      0.0000
   3318 O          10.4300   18.8310   64.8640 O.3   405  HOH405      0.0000
   3319 H1         10.3400   18.4720   63.9340 H     405  HOH405      0.0000
   3320 H2          9.9000   19.6740   64.9570 H     405  HOH405      0.0000
   3321 O          11.1140   25.3360    6.1800 O.3   406  HOH406      0.0000
   3322 H1         10.2910   25.6740    5.7230 H     406  HOH406      0.0000
   3323 H2         11.1930   25.7450    7.0890 H     406  HOH406      0.0000
   3324 O           2.2970   17.1720   66.4440 O.3   407  HOH407      0.0000
   3325 H1          2.1870   18.1440   66.2300 H     407  HOH407      0.0000
   3326 H2          3.1000   17.0390   67.0230 H     407  HOH407      0.0000
   3327 O          16.9700   22.6120   21.6790 O.3   408  HOH408      0.0000
   3328 H1         17.7220   23.2120   21.9590 H     408  HOH408      0.0000
   3329 H2         16.6950   22.8240   20.7420 H     408  HOH408      0.0000
   3330 O          26.5730   16.2680   58.6100 O.3   409  HOH409      0.0000
   3331 H1         26.6610   15.6390   59.3840 H     409  HOH409      0.0000
   3332 H2         26.8020   15.7970   57.7590 H     409  HOH409      0.0000
   3333 O          19.7390   16.9210    5.5770 O.3   410  HOH410      0.0000
   3334 H1         19.3460   16.4060    4.8140 H     410  HOH410      0.0000
   3335 H2         19.7130   16.3700    6.4110 H     410  HOH410      0.0000
   3336 O           5.7370   22.4800   15.6330 O.3   411  HOH411      0.0000
   3337 H1          6.0750   21.7100   16.1770 H     411  HOH411      0.0000
   3338 H2          4.7480   22.5710   15.7480 H     411  HOH411      0.0000
   3339 O          28.8150   19.8740    4.5470 O.3   412  HOH412      0.0000
   3340 H1         27.9200   20.1140    4.9260 H     412  HOH412      0.0000
   3341 H2         28.7070   19.4990    3.6270 H     412  HOH412      0.0000
   3342 O           7.5410   18.5950    6.8340 O.3   413  HOH413      0.0000
   3343 H1          6.9780   17.8470    7.1890 H     413  HOH413      0.0000
   3344 H2          7.8810   18.3650    5.9230 H     413  HOH413      0.0000
   3345 O          16.1280   16.9210    9.0990 O.3   414  HOH414      0.0000
   3346 H1         15.9430   16.7480   10.0680 H     414  HOH414      0.0000
   3347 H2         16.5890   17.8010    8.9920 H     414  HOH414      0.0000
   3348 O          22.0750   31.0830   19.9620 O.3   415  HOH415      0.0000
   3349 H1         22.8280   30.7350   20.5230 H     415  HOH415      0.0000
   3350 H2         21.5910   30.3220   19.5300 H     415  HOH415      0.0000
   3351 O           6.7530   31.6460    3.7960 O.3   416  HOH416      0.0000
   3352 H1          7.2990   30.8210    3.9500 H     416  HOH416      0.0000
   3353 H2          7.2120   32.2400    3.1360 H     416  HOH416      0.0000
   3354 O           3.2870   24.4520   14.5340 O.3   417  HOH417      0.0000
   3355 H1          3.2770   25.2740   13.9620 H     417  HOH417      0.0000
   3356 H2          3.8980   24.5870   15.3140 H     417  HOH417      0.0000
   3357 O          20.1540   15.1380   72.1100 O.3   418  HOH418      0.0000
   3358 H1         20.7270   14.3850   71.7830 H     418  HOH418      0.0000
   3359 H2         19.7900   14.9230   73.0150 H     418  HOH418      0.0000
   3360 O          22.9210   21.1730   71.0610 O.3   419  HOH419      0.0000
   3361 H1         23.0350   20.4300   71.7220 H     419  HOH419      0.0000
   3362 H2         22.0210   21.1120   70.6310 H     419  HOH419      0.0000
   3363 O          23.7210    2.0180   63.2060 O.3   420  HOH420      0.0000
   3364 H1         24.1350    1.2820   63.7430 H     420  HOH420      0.0000
   3365 H2         24.3290    2.8110   63.1880 H     420  HOH420      0.0000
   3366 O          26.5040   23.8670    1.3400 O.3   421  HOH421      0.0000
   3367 H1         26.5430   23.5630    2.2930 H     421  HOH421      0.0000
   3368 H2         27.4130   24.1470    1.0330 H     421  HOH421      0.0000
   3369 O          13.6160   10.6050   64.2540 O.3   422  HOH422      0.0000
   3370 H1         14.5760   10.3830   64.4270 H     422  HOH422      0.0000
   3371 H2         13.1390    9.8040   63.8940 H     422  HOH422      0.0000
   3372 O           7.4360   10.2570    6.1000 O.3   423  HOH423      0.0000
   3373 H1          6.7080   10.8960    6.3520 H     423  HOH423      0.0000
   3374 H2          8.0270   10.6680    5.4070 H     423  HOH423      0.0000
   3375 O          11.8610   19.7440   73.1190 O.3   424  HOH424      0.0000
   3376 H1         12.5740   20.3930   72.8460 H     424  HOH424      0.0000
   3377 H2         12.0530   19.3910   74.0340 H     424  HOH424      0.0000
   3378 O          26.9550   31.6640    9.5920 O.3   425  HOH425      0.0000
   3379 H1         27.7740   32.2300    9.6990 H     425  HOH425      0.0000
   3380 H2         26.6760   31.6450    8.6330 H     425  HOH425      0.0000
   3381 O          18.7590    7.0700   66.8160 O.3   426  HOH426      0.0000
   3382 H1         18.9520    6.2000   66.3590 H     426  HOH426      0.0000
   3383 H2         18.0400    6.9440   67.5000 H     426  HOH426      0.0000
   3384 O          33.2250   18.2820   20.7700 O.3   427  HOH427      0.0000
   3385 H1         33.2590   17.3040   20.9800 H     427  HOH427      0.0000
   3386 H2         32.2920   18.6220   20.8810 H     427  HOH427      0.0000
   3387 O          25.4910   20.5170   53.0030 O.3   428  HOH428      0.0000
   3388 H1         25.6680   20.3640   53.9770 H     428  HOH428      0.0000
   3389 H2         25.1580   19.6750   52.5800 H     428  HOH428      0.0000
   3390 O           9.7840   26.0910    2.3180 O.3   429  HOH429      0.0000
   3391 H1          9.4550   25.4030    2.9670 H     429  HOH429      0.0000
   3392 H2         10.0820   25.6490    1.4730 H     429  HOH429      0.0000
   3393 O          20.3330   28.0350   62.7190 O.3   430  HOH430      0.0000
   3394 H1         19.8060   28.3620   61.9330 H     430  HOH430      0.0000
   3395 H2         20.5250   28.7940   63.3410 H     430  HOH430      0.0000
   3396 O           7.5650   24.5390   14.0890 O.3   431  HOH431      0.0000
   3397 H1          7.9680   24.0860   13.2930 H     431  HOH431      0.0000
   3398 H2          6.8100   23.9910   14.4480 H     431  HOH431      0.0000
   3399 O          11.2820    3.8830   22.1560 O.3   432  HOH432      0.0000
   3400 H1         11.4260    2.8940   22.2140 H     432  HOH432      0.0000
   3401 H2         11.8110    4.3470   22.8660 H     432  HOH432      0.0000
   3402 O           7.8040   21.3610   70.2020 O.3   433  HOH433      0.0000
   3403 H1          8.0670   21.3080   71.1660 H     433  HOH433      0.0000
   3404 H2          6.8550   21.0660   70.0900 H     433  HOH433      0.0000
   3405 O          15.4200    4.6980    5.0740 O.3   434  HOH434      0.0000
   3406 H1         15.3130    5.6790    5.2430 H     434  HOH434      0.0000
   3407 H2         15.5310    4.2130    5.9410 H     434  HOH434      0.0000
   3408 O          13.4680   22.7240   64.9990 O.3   435  HOH435      0.0000
   3409 H1         14.2230   22.1660   65.3460 H     435  HOH435      0.0000
   3410 H2         13.1510   23.3500   65.7110 H     435  HOH435      0.0000
   3411 O          29.9450   17.4460   64.5070 O.3   436  HOH436      0.0000
   3412 H1         30.8090   17.9480   64.4500 H     436  HOH436      0.0000
   3413 H2         29.4450   17.5270   63.6460 H     436  HOH436      0.0000
   3414 O           2.5880   23.9430   17.5810 O.3   437  HOH437      0.0000
   3415 H1          2.3980   23.5550   18.4840 H     437  HOH437      0.0000
   3416 H2          3.4310   23.5530   17.2130 H     437  HOH437      0.0000
   3417 O          16.6840   28.7010   66.1450 O.3   438  HOH438      0.0000
   3418 H1         16.8530   27.9670   65.4860 H     438  HOH438      0.0000
   3419 H2         16.8670   29.5880   65.7230 H     438  HOH438      0.0000
   3420 O          17.3550   24.9560   60.1930 O.3   439  HOH439      0.0000
   3421 H1         17.9420   25.2990   59.4580 H     439  HOH439      0.0000
   3422 H2         17.2680   25.6460   60.9110 H     439  HOH439      0.0000
   3423 O           5.7780    4.4220   70.7960 O.3   440  HOH440      0.0000
   3424 H1          6.7230    4.5370   71.1070 H     440  HOH440      0.0000
   3425 H2          5.7150    4.6140   69.8170 H     440  HOH440      0.0000
   3426 O          24.9700   12.4860   70.4690 O.3   441  HOH441      0.0000
   3427 H1         25.7110   11.8350   70.6410 H     441  HOH441      0.0000
   3428 H2         24.9640   12.7500   69.5050 H     441  HOH441      0.0000
   3429 O          21.5710   19.9100    2.6930 O.3   442  HOH442      0.0000
   3430 H1         21.7550   20.7820    3.1490 H     442  HOH442      0.0000
   3431 H2         20.9110   20.0420    1.9550 H     442  HOH442      0.0000
   3432 O          12.5110   21.4800   10.9200 O.3   443  HOH443      0.0000
   3433 H1         13.5050   21.4010   10.8360 H     443  HOH443      0.0000
   3434 H2         12.1490   20.7020   11.4320 H     443  HOH443      0.0000
   3435 O           3.3590   32.2400   15.8840 O.3   444  HOH444      0.0000
   3436 H1          3.2730   31.3130   16.2510 H     444  HOH444      0.0000
   3437 H2          3.7460   32.2090   14.9630 H     444  HOH444      0.0000
   3438 O          28.2290    2.5750   53.4060 O.3   445  HOH445      0.0000
   3439 H1         27.4440    3.0210   53.8400 H     445  HOH445      0.0000
   3440 H2         27.9170    1.9760   52.6690 H     445  HOH445      0.0000
   3441 O          21.1270   23.0990   53.0270 O.3   446  HOH446      0.0000
   3442 H1         21.0490   23.9030   52.4360 H     446  HOH446      0.0000
   3443 H2         21.5000   23.3630   53.9150 H     446  HOH446      0.0000
   3444 O          25.4410    3.0590   12.7080 O.3   447  HOH447      0.0000
   3445 H1         25.4800    2.0580   12.7080 H     447  HOH447      0.0000
   3446 H2         24.7190    3.3720   12.0920 H     447  HOH447      0.0000
   3447 O          27.8670   24.2640   57.9230 O.3   448  HOH448      0.0000
   3448 H1         28.5030   25.0170   57.7470 H     448  HOH448      0.0000
   3449 H2         27.8420   23.6470   57.1380 H     448  HOH448      0.0000
   3450 O          23.0020   12.9600   66.8760 O.3   449  HOH449      0.0000
   3451 H1         22.0550   12.7640   67.1340 H     449  HOH449      0.0000
   3452 H2         23.2430   12.4540   66.0490 H     449  HOH449      0.0000
   3453 O          11.9790   31.9670   58.2950 O.3   450  HOH450      0.0000
   3454 H1         11.2630   31.6080   57.6930 H     450  HOH450      0.0000
   3455 H2         12.7170   31.2990   58.3850 H     450  HOH450      0.0000
   3456 O           7.3920   30.7890   65.9760 O.3   451  HOH451      0.0000
   3457 H1          6.9110   30.0180   65.5560 H     451  HOH451      0.0000
   3458 H2          6.9720   31.6500   65.6900 H     451  HOH451      0.0000
   3459 O          21.7910   32.0100   59.4710 O.3   452  HOH452      0.0000
   3460 H1         22.6680   32.2390   59.0460 H     452  HOH452      0.0000
   3461 H2         21.0410   32.2410   58.8530 H     452  HOH452      0.0000
   3462 O          30.6910    9.6110    6.5720 O.3   453  HOH453      0.0000
   3463 H1         30.7850    8.6330    6.7640 H     453  HOH453      0.0000
   3464 H2         30.4970    9.7510    5.6020 H     453  HOH453      0.0000
   3465 O           8.8470    6.6890   56.4980 O.3   454  HOH454      0.0000
   3466 H1          9.2470    7.3410   55.8520 H     454  HOH454      0.0000
   3467 H2          8.8200    7.0890   57.4130 H     454  HOH454      0.0000
   3468 O           1.1380   24.3210    2.4220 O.3   455  HOH455      0.0000
   3469 H1          1.4870   24.7680    1.5970 H     455  HOH455      0.0000
   3470 H2          1.0110   24.9950    3.1480 H     455  HOH455      0.0000
   3471 O          14.1010   24.5950    6.3710 O.3   456  HOH456      0.0000
   3472 H1         14.6630   24.6570    5.5450 H     456  HOH456      0.0000
   3473 H2         13.3530   25.2560    6.3250 H     456  HOH456      0.0000
   3474 O          11.1290   12.2670   18.9790 O.3   457  HOH457      0.0000
   3475 H1         11.4740   11.3460   18.7880 H     457  HOH457      0.0000
   3476 H2         11.7670   12.7540   19.5750 H     457  HOH457      0.0000
   3477 O          29.9480   16.1900   61.7820 O.3   458  HOH458      0.0000
   3478 H1         29.1830   15.6920   62.1950 H     458  HOH458      0.0000
   3479 H2         30.4300   15.6000   61.1350 H     458  HOH458      0.0000
   3480 O           8.9810   19.9330   56.1640 O.3   459  HOH459      0.0000
   3481 H1          8.1210   19.4980   55.8920 H     459  HOH459      0.0000
   3482 H2          9.6800   19.7700   55.4690 H     459  HOH459      0.0000
   3483 O           4.0070   22.7410   60.1040 O.3   460  HOH460      0.0000
   3484 H1          4.0840   22.0310   59.4030 H     460  HOH460      0.0000
   3485 H2          3.6210   22.3550   60.9410 H     460  HOH460      0.0000
   3486 O           3.9350    0.9990   71.4900 O.3   461  HOH461      0.0000
   3487 H1          4.8460    1.4120   71.5390 H     461  HOH461      0.0000
   3488 H2          3.3300    1.5730   70.9390 H     461  HOH461      0.0000
   3489 O          10.8130    5.7430   20.0190 O.3   462  HOH462      0.0000
   3490 H1         10.2070    5.3300   19.3380 H     462  HOH462      0.0000
   3491 H2         10.4750    5.5490   20.9390 H     462  HOH462      0.0000
   3492 O          32.3990   14.9480   18.7230 O.3   463  HOH463      0.0000
   3493 H1         32.1310   14.9680   19.6880 H     463  HOH463      0.0000
   3494 H2         33.2330   14.4100   18.6120 H     463  HOH463      0.0000
   3495 O           1.7670   14.3280   54.7800 O.3   464  HOH464      0.0000
   3496 H1          2.1300   14.7340   53.9400 H     464  HOH464      0.0000
   3497 H2          2.2230   14.7250   55.5750 H     464  HOH464      0.0000
   3498 O          18.4900    7.5930   17.0310 O.3   465  HOH465      0.0000
   3499 H1         17.5890    7.3630   16.6590 H     465  HOH465      0.0000
   3500 H2         18.3920    7.9770   17.9480 H     465  HOH465      0.0000
   3501 O           1.9210   18.5800   10.5080 O.3   466  HOH466      0.0000
   3502 H1          2.5030   19.3950   10.4790 H     466  HOH466      0.0000
   3503 H2          0.9980   18.8300   10.7970 H     466  HOH466      0.0000
   3504 O           5.7070   11.8830    8.0720 O.3   467  HOH467      0.0000
   3505 H1          5.0800   11.4280    8.7060 H     467  HOH467      0.0000
   3506 H2          5.2230   12.5940    7.5640 H     467  HOH467      0.0000
   3507 O          19.2440   26.1470   17.1240 O.3   468  HOH468      0.0000
   3508 H1         19.5390   25.2000   16.9910 H     468  HOH468      0.0000
   3509 H2         19.0360   26.5680   16.2420 H     468  HOH468      0.0000
   3510 O           4.9230    6.9470   12.6160 O.3   469  HOH469      0.0000
   3511 H1          5.1340    7.8690   12.2880 H     469  HOH469      0.0000
   3512 H2          5.1520    6.8680   13.5850 H     469  HOH469      0.0000
   3513 O          28.2620   31.0790   64.6170 O.3   470  HOH470      0.0000
   3514 H1         28.0870   32.0580   64.7360 H     470  HOH470      0.0000
   3515 H2         27.4000   30.5920   64.4780 H     470  HOH470      0.0000
   3516 O          31.8540    6.1800   73.5000 O.3   471  HOH471      0.0000
   3517 H1         31.7480    5.8540   72.5590 H     471  HOH471      0.0000
   3518 H2         32.8050    6.4380   73.6660 H     471  HOH471      0.0000
   3519 O          15.6600   26.8130   66.9280 O.3   472  HOH472      0.0000
   3520 H1         14.8060   27.3170   67.0720 H     472  HOH472      0.0000
   3521 H2         15.4830   25.8300   66.9450 H     472  HOH472      0.0000
   3522 O          20.8060    7.3890   19.9810 O.3   473  HOH473      0.0000
   3523 H1         20.2620    7.7140   20.7550 H     473  HOH473      0.0000
   3524 H2         20.2220    7.2670   19.1790 H     473  HOH473      0.0000
   3525 O          19.4840   23.4220   10.3400 O.3   474  HOH474      0.0000
   3526 H1         18.8810   22.6390   10.4990 H     474  HOH474      0.0000
   3527 H2         19.1580   24.2130   10.8560 H     474  HOH474      0.0000
   3528 O          30.2520   29.7890   60.1640 O.3   475  HOH475      0.0000
   3529 H1         31.1920   29.7960   60.5080 H     475  HOH475      0.0000
   3530 H2         29.6130   29.9690   60.9110 H     475  HOH475      0.0000
   3531 O          29.9200   25.9060    6.1770 O.3   476  HOH476      0.0000
   3532 H1         29.7050   26.2750    5.2720 H     476  HOH476      0.0000
   3533 H2         30.1600   24.9390    6.1030 H     476  HOH476      0.0000
   3534 O          22.4940   20.0870    5.7090 O.3   477  HOH477      0.0000
   3535 H1         21.5330   19.9620    5.9590 H     477  HOH477      0.0000
   3536 H2         23.0840   19.7640    6.4480 H     477  HOH477      0.0000
   3537 O          23.2140   10.5180   55.3000 O.3   478  HOH478      0.0000
   3538 H1         23.1530    9.9320   56.1100 H     478  HOH478      0.0000
   3539 H2         24.1510   10.8420   55.1820 H     478  HOH478      0.0000
   3540 O           9.6050   26.5880   73.8290 O.3   479  HOH479      0.0000
   3541 H1         10.4280   27.1310   74.0000 H     479  HOH479      0.0000
   3542 H2          9.0840   26.9870   73.0750 H     479  HOH479      0.0000
   3543 O          17.8830    8.1700   59.3350 O.3   480  HOH480      0.0000
   3544 H1         18.4580    7.3880   59.0900 H     480  HOH480      0.0000
   3545 H2         17.4890    8.0330   60.2430 H     480  HOH480      0.0000
   3546 O           4.9270   11.0310   16.6320 O.3   481  HOH481      0.0000
   3547 H1          4.9840   11.8200   16.0190 H     481  HOH481      0.0000
   3548 H2          4.4890   10.2650   16.1630 H     481  HOH481      0.0000
   3549 O           2.9110   11.7440   13.1050 O.3   482  HOH482      0.0000
   3550 H1          3.5550   12.5000   13.2350 H     482  HOH482      0.0000
   3551 H2          1.9850   12.0410   13.3360 H     482  HOH482      0.0000
   3552 O           1.5860   28.1870   13.5810 O.3   483  HOH483      0.0000
   3553 H1          1.4030   27.9230   14.5290 H     483  HOH483      0.0000
   3554 H2          2.0290   27.4330   13.0960 H     483  HOH483      0.0000
   3555 O          16.0150   13.4230   11.5770 O.3   484  HOH484      0.0000
   3556 H1         15.8210   14.3360   11.9400 H     484  HOH484      0.0000
   3557 H2         15.8690   13.4110   10.5890 H     484  HOH484      0.0000
   3558 O          22.4270   26.7970   68.1360 O.3   485  HOH485      0.0000
   3559 H1         22.3840   25.8440   67.8340 H     485  HOH485      0.0000
   3560 H2         22.0510   26.8800   69.0590 H     485  HOH485      0.0000
   3561 O          17.6580   31.3520   69.8950 O.3   486  HOH486      0.0000
   3562 H1         18.0690   30.7640   70.5930 H     486  HOH486      0.0000
   3563 H2         17.4680   32.2550   70.2780 H     486  HOH486      0.0000
   3564 O          19.3340   10.0640   64.0990 O.3   487  HOH487      0.0000
   3565 H1         19.4820   10.8520   64.6980 H     487  HOH487      0.0000
   3566 H2         19.7760   10.2180   63.2160 H     487  HOH487      0.0000
   3567 O          28.3780   22.6010   64.8780 O.3   488  HOH488      0.0000
   3568 H1         29.1190   21.9310   64.9430 H     488  HOH488      0.0000
   3569 H2         27.8700   22.4680   64.0270 H     488  HOH488      0.0000
   3570 O          18.0570   30.5780   18.4050 O.3   489  HOH489      0.0000
   3571 H1         17.8390   29.6420   18.1250 H     489  HOH489      0.0000
   3572 H2         17.6520   30.7690   19.2990 H     489  HOH489      0.0000
   3573 O           4.3760   15.4430   12.7740 O.3   490  HOH490      0.0000
   3574 H1          4.1340   15.8610   11.8980 H     490  HOH490      0.0000
   3575 H2          5.3410   15.6060   12.9750 H     490  HOH490      0.0000
   3576 O          24.5890   28.8940   53.5250 O.3   491  HOH491      0.0000
   3577 H1         24.4980   28.1990   54.2410 H     491  HOH491      0.0000
   3578 H2         23.7590   29.4490   53.4800 H     491  HOH491      0.0000
   3579 O          14.0880    7.0300   60.5120 O.3   492  HOH492      0.0000
   3580 H1         13.8410    6.1140   60.1940 H     492  HOH492      0.0000
   3581 H2         15.0310    7.2380   60.2560 H     492  HOH492      0.0000
   3582 O          31.6330   21.1070    5.1270 O.3   493  HOH493      0.0000
   3583 H1         31.2000   21.9470    5.4580 H     493  HOH493      0.0000
   3584 H2         31.7000   21.1270    4.1300 H     493  HOH493      0.0000
   3585 O          18.4970   30.0540   61.4210 O.3   494  HOH494      0.0000
   3586 H1         18.7370   30.3830   62.3360 H     494  HOH494      0.0000
   3587 H2         18.6500   30.7760   60.7470 H     494  HOH494      0.0000
   3588 O           7.0970   12.4550   18.5540 O.3   495  HOH495      0.0000
   3589 H1          6.1730   12.0720   18.5160 H     495  HOH495      0.0000
   3590 H2          7.6020   12.2150   17.7260 H     495  HOH495      0.0000
   3591 O          22.4520   18.7130   14.8510 O.3   496  HOH496      0.0000
   3592 H1         22.6930   19.5450   15.3530 H     496  HOH496      0.0000
   3593 H2         21.4780   18.5160   14.9640 H     496  HOH496      0.0000
   3594 O          21.2650    5.2380   11.2980 O.3   497  HOH497      0.0000
   3595 H1         20.6810    5.5410   10.5440 H     497  HOH497      0.0000
   3596 H2         20.7190    4.7490   11.9780 H     497  HOH497      0.0000
   3597 O          11.3770   17.4810   21.2730 O.3   498  HOH498      0.0000
   3598 H1         11.0350   16.6100   21.6280 H     498  HOH498      0.0000
   3599 H2         11.6970   17.3640   20.3340 H     498  HOH498      0.0000
   3600 O           9.7460    7.7510   18.7070 O.3   499  HOH499      0.0000
   3601 H1          9.5570    7.1790   17.9070 H     499  HOH499      0.0000
   3602 H2          9.3380    7.3430   19.5230 H     499  HOH499      0.0000
   3603 O          27.9880   20.1250   17.6470 O.3   500  HOH500      0.0000
   3604 H1         27.3170   20.1810   16.9050 H     500  HOH500      0.0000
   3605 H2         28.8480   19.7520   17.3010 H     500  HOH500      0.0000
   3606 O          12.6950   21.9410   53.3390 O.3   501  HOH501      0.0000
   3607 H1         12.0690   21.2530   53.7080 H     501  HOH501      0.0000
   3608 H2         12.9860   21.6800   52.4190 H     501  HOH501      0.0000
   3609 O          13.7910   18.7820    3.8720 O.3   502  HOH502      0.0000
   3610 H1         14.2940   18.3000    3.1530 H     502  HOH502      0.0000
   3611 H2         12.8710   18.4020    3.9580 H     502  HOH502      0.0000
   3612 O          21.2380    6.4120    2.4800 O.3   503  HOH503      0.0000
   3613 H1         21.6340    7.0160    1.7870 H     503  HOH503      0.0000
   3614 H2         21.6270    5.4950    2.3970 H     503  HOH503      0.0000
   3615 O           8.3970    5.7840   72.7110 O.3   504  HOH504      0.0000
   3616 H1          8.2240    6.0110   71.7510 H     504  HOH504      0.0000
   3617 H2          8.3860    4.7930   72.8350 H     504  HOH504      0.0000
   3618 O          17.2780   30.9080   12.1140 O.3   505  HOH505      0.0000
   3619 H1         17.8690   31.6270   11.7460 H     505  HOH505      0.0000
   3620 H2         17.5720   30.6630   13.0370 H     505  HOH505      0.0000
   3621 O          12.1680    1.8530   68.9800 O.3   506  HOH506      0.0000
   3622 H1         11.9320    1.6420   68.0300 H     506  HOH506      0.0000
   3623 H2         12.8160    2.6120   69.0100 H     506  HOH506      0.0000
   3624 O          27.1850   13.9460   19.1710 O.3   507  HOH507      0.0000
   3625 H1         26.3490   14.4230   18.8960 H     507  HOH507      0.0000
   3626 H2         27.4380   14.2090   20.1020 H     507  HOH507      0.0000
   3627 O          16.1200    4.6590   57.0730 O.3   508  HOH508      0.0000
   3628 H1         15.1660    4.9180   57.2310 H     508  HOH508      0.0000
   3629 H2         16.2000    4.1650   56.2070 H     508  HOH508      0.0000
   3630 O          21.2480   10.4660   12.5360 O.3   509  HOH509      0.0000
   3631 H1         21.0850    9.4780   12.5200 H     509  HOH509      0.0000
   3632 H2         21.0090   10.8370   13.4320 H     509  HOH509      0.0000
   3633 O          10.5970    7.7430   58.5330 O.3   510  HOH510      0.0000
   3634 H1         10.2870    7.1520   59.2790 H     510  HOH510      0.0000
   3635 H2         11.2620    8.4050   58.8750 H     510  HOH510      0.0000
   3636 O          20.3210    1.6970   21.4680 O.3   511  HOH511      0.0000
   3637 H1         20.6570    1.2610   20.6320 H     511  HOH511      0.0000
   3638 H2         20.0710    1.0000   22.1400 H     511  HOH511      0.0000
   3639 O          26.6530   28.6620   55.6040 O.3   512  HOH512      0.0000
   3640 H1         27.2500   28.0230   55.1170 H     512  HOH512      0.0000
   3641 H2         26.8740   28.6610   56.5790 H     512  HOH512      0.0000
   3642 O           6.7990   23.3130   63.3470 O.3   513  HOH513      0.0000
   3643 H1          7.0250   22.5600   62.7270 H     513  HOH513      0.0000
   3644 H2          6.1090   23.0180   64.0070 H     513  HOH513      0.0000
   3645 O          26.5840   18.0910   17.0310 O.3   514  HOH514      0.0000
   3646 H1         26.2770   17.2060   17.3810 H     514  HOH514      0.0000
   3647 H2         27.1290   17.9610   16.2040 H     514  HOH514      0.0000
   3648 O          12.4060   12.9660    3.1010 O.3   515  HOH515      0.0000
   3649 H1         11.8310   13.3850    3.8050 H     515  HOH515      0.0000
   3650 H2         12.1330   13.2920    2.1970 H     515  HOH515      0.0000
   3651 O          19.7430   27.8820   53.1670 O.3   516  HOH516      0.0000
   3652 H1         19.4350   26.9910   52.8330 H     516  HOH516      0.0000
   3653 H2         19.3440   28.0660   54.0650 H     516  HOH516      0.0000
   3654 O          19.7930    2.0040   70.4600 O.3   517  HOH517      0.0000
   3655 H1         20.2510    1.2200   70.8800 H     517  HOH517      0.0000
   3656 H2         18.8050    1.8540   70.4430 H     517  HOH517      0.0000
   3657 O           4.0100   19.1470   18.1970 O.3   518  HOH518      0.0000
   3658 H1          3.3980   18.6990   17.5430 H     518  HOH518      0.0000
   3659 H2          4.2670   18.5050   18.9190 H     518  HOH518      0.0000
   3660 O          21.1820   18.3440   73.3430 O.3   519  HOH519      0.0000
   3661 H1         21.9670   17.9530   73.8250 H     519  HOH519      0.0000
   3662 H2         21.4360   19.2160   72.9260 H     519  HOH519      0.0000
   3663 O          27.3430   18.8930   71.8450 O.3   520  HOH520      0.0000
   3664 H1         28.0130   18.2940   72.2860 H     520  HOH520      0.0000
   3665 H2         27.6020   19.0540   70.8940 H     520  HOH520      0.0000
   3666 O          11.6920   11.7420   65.3980 O.3   521  HOH521      0.0000
   3667 H1         11.3840   12.6660   65.1680 H     521  HOH521      0.0000
   3668 H2         12.5490   11.7850   65.9100 H     521  HOH521      0.0000
   3669 O           5.3110   17.7950   11.2670 O.3   522  HOH522      0.0000
   3670 H1          5.6820   18.4590   10.6160 H     522  HOH522      0.0000
   3671 H2          5.5040   18.0880   12.2020 H     522  HOH522      0.0000
   3672 O          31.4950    7.5670   68.6330 O.3   523  HOH523      0.0000
   3673 H1         32.3980    7.6520   68.2070 H     523  HOH523      0.0000
   3674 H2         31.5520    6.9800   69.4400 H     523  HOH523      0.0000
   3675 O          12.0560    5.1080   10.8610 O.3   524  HOH524      0.0000
   3676 H1         12.4770    4.4650   10.2190 H     524  HOH524      0.0000
   3677 H2         12.1190    4.7510   11.7920 H     524  HOH524      0.0000
   3678 O           9.4380   23.4880    1.0610 O.3   525  HOH525      0.0000
   3679 H1          9.0040   22.5920    1.1720 H     525  HOH525      0.0000
   3680 H2         10.3650   23.4680    1.4340 H     525  HOH525      0.0000
   3681 O          12.0860   18.8080   59.7730 O.3   526  HOH526      0.0000
   3682 H1         11.4810   19.2590   60.4310 H     526  HOH526      0.0000
   3683 H2         11.6610   17.9690   59.4370 H     526  HOH526      0.0000
   3684 O           6.7220    8.5080   66.7930 O.3   527  HOH527      0.0000
   3685 H1          5.9720    9.0030   66.3530 H     527  HOH527      0.0000
   3686 H2          6.7820    8.7660   67.7570 H     527  HOH527      0.0000
   3687 O          32.7500   13.8040   59.1790 O.3   528  HOH528      0.0000
   3688 H1         32.2020   14.6130   59.3950 H     528  HOH528      0.0000
   3689 H2         32.2530   12.9760   59.4370 H     528  HOH528      0.0000
   3690 O          13.1720   29.1760   14.3730 O.3   529  HOH529      0.0000
   3691 H1         13.1670   28.8390   13.4300 H     529  HOH529      0.0000
   3692 H2         12.6530   30.0280   14.4340 H     529  HOH529      0.0000
   3693 O          20.1600   31.8280   63.8390 O.3   530  HOH530      0.0000
   3694 H1         19.3720   32.2400   63.3800 H     530  HOH530      0.0000
   3695 H2         21.0050   32.2440   63.5050 H     530  HOH530      0.0000
   3696 O           1.0360   29.2930   66.0920 O.3   531  HOH531      0.0000
   3697 H1          1.0010   28.7390   65.2590 H     531  HOH531      0.0000
   3698 H2          0.9940   28.7030   66.8970 H     531  HOH531      0.0000
   3699 O          30.5180    9.2270   13.6540 O.3   532  HOH532      0.0000
   3700 H1         31.1810    9.9770   13.6420 H     532  HOH532      0.0000
   3701 H2         29.6130    9.5750   13.8950 H     532  HOH532      0.0000
   3702 O           7.0330   22.8780   67.7550 O.3   533  HOH533      0.0000
   3703 H1          7.0470   23.8710   67.8800 H     533  HOH533      0.0000
   3704 H2          7.3920   22.6420   66.8530 H     533  HOH533      0.0000
   3705 O          15.1550    7.6790   73.1610 O.3   534  HOH534      0.0000
   3706 H1         15.2060    7.0500   72.3840 H     534  HOH534      0.0000
   3707 H2         14.9580    7.1720   73.9990 H     534  HOH534      0.0000
   3708 O          24.4870    2.5410    1.0640 O.3   535  HOH535      0.0000
   3709 H1         25.4840    2.6060    0.9980 H     535  HOH535      0.0000
   3710 H2         24.2290    1.6780    1.4970 H     535  HOH535      0.0000
   3711 O           1.4410    6.8530   69.1070 O.3   536  HOH536      0.0000
   3712 H1          1.0180    6.0710   68.6480 H     536  HOH536      0.0000
   3713 H2          1.0000    7.0120   69.9890 H     536  HOH536      0.0000
   3714 O          25.5550   31.1980   68.4070 O.3   537  HOH537      0.0000
   3715 H1         24.8370   31.8880   68.5110 H     537  HOH537      0.0000
   3716 H2         25.1450   30.2930   68.2980 H     537  HOH537      0.0000
   3717 O          18.6840    2.2640   18.1310 O.3   538  HOH538      0.0000
   3718 H1         19.3530    2.7820   17.5950 H     538  HOH538      0.0000
   3719 H2         19.1540    1.6180   18.7310 H     538  HOH538      0.0000
   3720 O          32.3290    7.0240   56.1500 O.3   539  HOH539      0.0000
   3721 H1         33.2600    6.6570   56.1630 H     539  HOH539      0.0000
   3722 H2         32.0210    7.2070   57.0830 H     539  HOH539      0.0000
   3723 O           6.8270   30.0640   60.3310 O.3   540  HOH540      0.0000
   3724 H1          7.4760   29.3020   60.3150 H     540  HOH540      0.0000
   3725 H2          6.9400   30.5910   61.1730 H     540  HOH540      0.0000
   3726 O          11.5990    3.0130   65.5680 O.3   541  HOH541      0.0000
   3727 H1         12.5790    3.2060   65.6270 H     541  HOH541      0.0000
   3728 H2         11.2310    3.3710   64.7110 H     541  HOH541      0.0000
   3729 O          12.4890   23.4630   12.6930 O.3   542  HOH542      0.0000
   3730 H1         13.2560   23.1670   12.1230 H     542  HOH542      0.0000
   3731 H2         11.6250   23.1780   12.2790 H     542  HOH542      0.0000
   3732 O          33.1530    9.4260   61.7670 O.3   543  HOH543      0.0000
   3733 H1         33.0240    9.6820   60.8080 H     543  HOH543      0.0000
   3734 H2         32.4030    9.7870   62.3210 H     543  HOH543      0.0000
   3735 O          12.9450   19.0420   18.3980 O.3   544  HOH544      0.0000
   3736 H1         13.8250   18.9760   18.8700 H     544  HOH544      0.0000
   3737 H2         12.4700   18.1630   18.4360 H     544  HOH544      0.0000
   3738 O          15.3120   10.6100   70.5860 O.3   545  HOH545      0.0000
   3739 H1         14.6730    9.8730   70.3590 H     545  HOH545      0.0000
   3740 H2         15.2650   10.8140   71.5630 H     545  HOH545      0.0000
   3741 O          31.1880   24.2390   13.5710 O.3   546  HOH546      0.0000
   3742 H1         31.1270   24.4840   12.6030 H     546  HOH546      0.0000
   3743 H2         30.7740   23.3420   13.7240 H     546  HOH546      0.0000
   3744 O          14.6660   13.6760   73.2010 O.3   547  HOH547      0.0000
   3745 H1         14.6940   13.0210   73.9570 H     547  HOH547      0.0000
   3746 H2         14.6900   13.1910   72.3280 H     547  HOH547      0.0000
   3747 O          29.5730   29.9370    4.7280 O.3   548  HOH548      0.0000
   3748 H1         29.1270   29.7080    5.5940 H     548  HOH548      0.0000
   3749 H2         30.3860   30.4920    4.8980 H     548  HOH548      0.0000
   3750 O           5.2650   18.8520   65.9370 O.3   549  HOH549      0.0000
   3751 H1          6.2630   18.9200   65.9630 H     549  HOH549      0.0000
   3752 H2          4.9740   17.9580   66.2730 H     549  HOH549      0.0000
   3753 O          19.3160   31.7240    6.5420 O.3   550  HOH550      0.0000
   3754 H1         19.1890   30.7540    6.3270 H     550  HOH550      0.0000
   3755 H2         18.5280   32.0660    7.0520 H     550  HOH550      0.0000
   3756 O          12.9160   12.0370   13.2000 O.3   551  HOH551      0.0000
   3757 H1         12.1840   11.4690   13.5790 H     551  HOH551      0.0000
   3758 H2         13.0710   12.8310   13.7870 H     551  HOH551      0.0000
   3759 O          23.5930    6.7730    5.2660 O.3   552  HOH552      0.0000
   3760 H1         24.4240    7.3260    5.1820 H     552  HOH552      0.0000
   3761 H2         22.8440    7.3330    5.6170 H     552  HOH552      0.0000
   3762 O          27.4000    1.4720   13.6060 O.3   553  HOH553      0.0000
   3763 H1         27.5110    2.4620   13.5090 H     553  HOH553      0.0000
   3764 H2         28.1930    1.0000   13.2220 H     553  HOH553      0.0000
   3765 O          17.0280    8.1090    2.8480 O.3   554  HOH554      0.0000
   3766 H1         18.0230    8.1780    2.9330 H     554  HOH554      0.0000
   3767 H2         16.7830    7.8190    1.9230 H     554  HOH554      0.0000
   3768 O          21.5560   20.6300   54.8650 O.3   555  HOH555      0.0000
   3769 H1         21.3870   21.4040   55.4760 H     555  HOH555      0.0000
   3770 H2         22.2270   20.0120   55.2730 H     555  HOH555      0.0000
   3771 O          15.6300   26.6200   53.3660 O.3   556  HOH556      0.0000
   3772 H1         14.7210   27.0140   53.2210 H     556  HOH556      0.0000
   3773 H2         15.8940   26.7150   54.3250 H     556  HOH556      0.0000
   3774 O          10.6300    5.4780   64.8980 O.3   557  HOH557      0.0000
   3775 H1         10.0620    5.1550   64.1400 H     557  HOH557      0.0000
   3776 H2         10.0930    6.0660   65.5020 H     557  HOH557      0.0000
   3777 O           9.4230   25.1430   54.0150 O.3   558  HOH558      0.0000
   3778 H1         10.2860   25.4860   54.3910 H     558  HOH558      0.0000
   3779 H2          9.2520   25.5550   53.1210 H     558  HOH558      0.0000
   3780 O          27.8340   10.0890   63.1650 O.3   559  HOH559      0.0000
   3781 H1         28.4750    9.8290   63.8890 H     559  HOH559      0.0000
   3782 H2         27.0230    9.5060   63.2010 H     559  HOH559      0.0000
   3783 O          12.5030   10.6200    8.3440 O.3   560  HOH560      0.0000
   3784 H1         11.8800   11.4020    8.3950 H     560  HOH560      0.0000
   3785 H2         13.4470   10.9400    8.2730 H     560  HOH560      0.0000
   3786 O          19.1040   13.7750   18.1720 O.3   561  HOH561      0.0000
   3787 H1         18.8120   13.9580   17.2320 H     561  HOH561      0.0000
   3788 H2         18.5520   14.3080   18.8120 H     561  HOH561      0.0000
   3789 O           5.8010    5.7020    8.5650 O.3   562  HOH562      0.0000
   3790 H1          6.6800    6.1690    8.6780 H     562  HOH562      0.0000
   3791 H2          5.2550    5.7970    9.3960 H     562  HOH562      0.0000
   3792 O          21.1910   12.4400   17.6220 O.3   563  HOH563      0.0000
   3793 H1         22.1580   12.6870   17.5530 H     563  HOH563      0.0000
   3794 H2         20.7440   12.5570   16.7360 H     563  HOH563      0.0000
   3795 O          26.4250   13.6700   11.5020 O.3   564  HOH564      0.0000
   3796 H1         26.7890   14.4420   10.9790 H     564  HOH564      0.0000
   3797 H2         25.4330   13.7560   11.5940 H     564  HOH564      0.0000
   3798 O          23.9740    4.1460   61.4660 O.3   565  HOH565      0.0000
   3799 H1         24.7750    4.5470   61.9130 H     565  HOH565      0.0000
   3800 H2         23.7920    4.6160   60.6040 H     565  HOH565      0.0000
   3801 O           4.3100   24.1650   63.4750 O.3   566  HOH566      0.0000
   3802 H1          4.7770   24.8460   64.0420 H     566  HOH566      0.0000
   3803 H2          4.7850   24.0660   62.6010 H     566  HOH566      0.0000
   3804 O          29.5640   21.8040   62.7900 O.3   567  HOH567      0.0000
   3805 H1         30.2220   22.5590   62.7940 H     567  HOH567      0.0000
   3806 H2         29.1000   21.7610   61.9060 H     567  HOH567      0.0000
   3807 O          13.3330   16.1540   65.8850 O.3   568  HOH568      0.0000
   3808 H1         12.3910   16.3380   66.1710 H     568  HOH568      0.0000
   3809 H2         13.8200   17.0150   65.7410 H     568  HOH568      0.0000
   3810 O          32.8430    5.2500   15.0270 O.3   569  HOH569      0.0000
   3811 H1         33.2640    5.0890   14.1330 H     569  HOH569      0.0000
   3812 H2         33.2350    4.6310   15.7060 H     569  HOH569      0.0000
   3813 O          26.3300   27.3530   18.5730 O.3   570  HOH570      0.0000
   3814 H1         25.4490   27.3420   19.0480 H     570  HOH570      0.0000
   3815 H2         26.2130   27.0480   17.6290 H     570  HOH570      0.0000
   3816 O          25.7310    7.8840   65.0750 O.3   571  HOH571      0.0000
   3817 H1         26.2810    8.6950   65.2780 H     571  HOH571      0.0000
   3818 H2         26.2040    7.3080   64.4090 H     571  HOH571      0.0000
   3819 O          21.4290   18.2970   19.9930 O.3   572  HOH572      0.0000
   3820 H1         22.3840   18.0460   19.8220 H     572  HOH572      0.0000
   3821 H2         21.2220   18.2120   20.9660 H     572  HOH572      0.0000
   3822 O          19.1220   18.5130   67.9660 O.3   573  HOH573      0.0000
   3823 H1         19.5600   19.4060   67.8560 H     573  HOH573      0.0000
   3824 H2         19.4160   18.0920   68.8240 H     573  HOH573      0.0000
   3825 O          19.9630   22.1400   58.3160 O.3   574  HOH574      0.0000
   3826 H1         19.7370   21.3450   58.8810 H     574  HOH574      0.0000
   3827 H2         20.2640   21.8410   57.4110 H     574  HOH574      0.0000
   3828 O          29.1690   25.6930   55.4780 O.3   575  HOH575      0.0000
   3829 H1         29.2650   24.7230   55.7050 H     575  HOH575      0.0000
   3830 H2         30.0080   26.0300   55.0520 H     575  HOH575      0.0000
   3831 O           5.2330    2.9550   73.0590 O.3   576  HOH576      0.0000
   3832 H1          4.8940    2.9870   74.0000 H     576  HOH576      0.0000
   3833 H2          4.6660    3.5300   72.4710 H     576  HOH576      0.0000
   3834 O          28.0730    7.7220   21.3100 O.3   577  HOH577      0.0000
   3835 H1         28.0590    6.7610   21.5900 H     577  HOH577      0.0000
   3836 H2         28.7750    7.8640   20.6130 H     577  HOH577      0.0000
   3837 O          14.9310   10.5070    6.1170 O.3   578  HOH578      0.0000
   3838 H1         14.3370   11.0190    5.4950 H     578  HOH578      0.0000
   3839 H2         14.3960    9.8300    6.6200 H     578  HOH578      0.0000
   3840 O           8.7230   16.3790   68.3790 O.3   579  HOH579      0.0000
   3841 H1          9.1960   15.6750   67.8490 H     579  HOH579      0.0000
   3842 H2          8.5350   17.1730   67.8020 H     579  HOH579      0.0000
   3843 O          17.0960    7.4980   52.0480 O.3   580  HOH580      0.0000
   3844 H1         16.8850    8.0830   52.8320 H     580  HOH580      0.0000
   3845 H2         16.5220    6.6800   52.0680 H     580  HOH580      0.0000
   3846 O          32.5180   28.4510   56.8570 O.3   581  HOH581      0.0000
   3847 H1         33.2600   28.1920   57.4770 H     581  HOH581      0.0000
   3848 H2         32.2790   27.6780   56.2690 H     581  HOH581      0.0000
   3849 O           1.0000    9.1640   13.4590 O.3   582  HOH582      0.0000
   3850 H1          1.6280    9.8780   13.1460 H     582  HOH582      0.0000
   3851 H2          1.4080    8.6590   14.2190 H     582  HOH582      0.0000
   3852 O          23.0160   20.7140   21.8970 O.3   583  HOH583      0.0000
   3853 H1         22.4130   20.0190   22.2940 H     583  HOH583      0.0000
   3854 H2         23.2020   20.4980   20.9390 H     583  HOH583      0.0000
   3855 O           9.9710   10.1270   20.7910 O.3   584  HOH584      0.0000
   3856 H1         10.0710    9.3020   20.2330 H     584  HOH584      0.0000
   3857 H2          9.8430   10.9250   20.2030 H     584  HOH584      0.0000
   3858 O          21.0910   12.0220   56.9580 O.3   585  HOH585      0.0000
   3859 H1         20.0950   12.0830   56.8740 H     585  HOH585      0.0000
   3860 H2         21.4470   11.3430   56.3180 H     585  HOH585      0.0000
   3861 O          16.7350    9.0950   55.2360 O.3   586  HOH586      0.0000
   3862 H1         16.4020    8.1880   54.9750 H     586  HOH586      0.0000
   3863 H2         16.2040    9.4460   56.0070 H     586  HOH586      0.0000
   3864 O          17.5710    6.6290   61.9350 O.3   587  HOH587      0.0000
   3865 H1         17.9550    5.8060   61.5150 H     587  HOH587      0.0000
   3866 H2         17.1610    6.4030   62.8180 H     587  HOH587      0.0000
   3867 O          20.4960   22.0740   21.9520 O.3   588  HOH588      0.0000
   3868 H1         21.3180   21.9840   22.5170 H     588  HOH588      0.0000
   3869 H2         20.6760   22.6830   21.1810 H     588  HOH588      0.0000
   3870 O          24.3740   20.2110   60.9620 O.3   589  HOH589      0.0000
   3871 H1         24.0020   21.1400   60.9290 H     589  HOH589      0.0000
   3872 H2         24.2670   19.7680   60.0720 H     589  HOH589      0.0000
   3873 O          15.4210    8.8990   11.6610 O.3   590  HOH590      0.0000
   3874 H1         15.8930    9.0850   12.5240 H     590  HOH590      0.0000
   3875 H2         15.1230    7.9450   11.6340 H     590  HOH590      0.0000
   3876 O          15.1310    4.1370   67.7430 O.3   591  HOH591      0.0000
   3877 H1         15.9770    4.2020   67.2120 H     591  HOH591      0.0000
   3878 H2         15.3060    3.6670   68.6080 H     591  HOH591      0.0000
   3879 O           4.2060   26.3760   12.0490 O.3   592  HOH592      0.0000
   3880 H1          4.1640   26.9590   12.8620 H     592  HOH592      0.0000
   3881 H2          5.1510   26.1030   11.8730 H     592  HOH592      0.0000
   3882 O           4.4310   14.1570   61.8440 O.3   593  HOH593      0.0000
   3883 H1          3.5530   13.7050   61.6800 H     593  HOH593      0.0000
   3884 H2          4.4430   14.5580   62.7600 H     593  HOH593      0.0000
   3885 O          30.3160    1.8880   14.5260 O.3   594  HOH594      0.0000
   3886 H1         29.7150    1.1370   14.8040 H     594  HOH594      0.0000
   3887 H2         30.9890    2.0710   15.2420 H     594  HOH594      0.0000
   3888 O          26.3030    6.8670   14.6770 O.3   595  HOH595      0.0000
   3889 H1         25.8750    7.4550   15.3660 H     595  HOH595      0.0000
   3890 H2         26.9580    6.2520   15.1120 H     595  HOH595      0.0000
   3891 O          29.3110   15.9290   59.2700 O.3   596  HOH596      0.0000
   3892 H1         28.8120   15.4170   58.5690 H     596  HOH596      0.0000
   3893 H2         28.6670   16.4010   59.8720 H     596  HOH596      0.0000
   3894 O          20.9530   14.1680   10.6180 O.3   597  HOH597      0.0000
   3895 H1         20.2510   14.4280   11.2830 H     597  HOH597      0.0000
   3896 H2         21.5070   13.4210   10.9820 H     597  HOH597      0.0000
   3897 O           5.6480   13.5100   60.1300 O.3   598  HOH598      0.0000
   3898 H1          4.8490   12.9090   60.0820 H     598  HOH598      0.0000
   3899 H2          5.9340   13.7720   59.2100 H     598  HOH598      0.0000
   3900 O           9.3430    8.7270   23.5270 O.3   599  HOH599      0.0000
   3901 H1          8.4430    9.1550   23.6190 H     599  HOH599      0.0000
   3902 H2          9.8170    9.0990   22.7290 H     599  HOH599      0.0000
   3903 O          10.9990    1.3320   71.0560 O.3   600  HOH600      0.0000
   3904 H1         10.0720    1.5610   70.7570 H     600  HOH600      0.0000
   3905 H2         11.5360    2.1660   71.1730 H     600  HOH600      0.0000
   3906 O          13.1870    4.1490    5.7540 O.3   601  HOH601      0.0000
   3907 H1         12.5280    4.4390    5.0600 H     601  HOH601      0.0000
   3908 H2         13.5930    3.2730    5.4940 H     601  HOH601      0.0000
   3909 O          28.1290   20.4500   52.5790 O.3   602  HOH602      0.0000
   3910 H1         27.4440   20.1210   51.9280 H     602  HOH602      0.0000
   3911 H2         27.6830   20.9540   53.3190 H     602  HOH602      0.0000
   3912 O           7.2090   20.9190   65.5090 O.3   603  HOH603      0.0000
   3913 H1          8.0920   20.6740   65.9110 H     603  HOH603      0.0000
   3914 H2          7.3410   21.2820   64.5880 H     603  HOH603      0.0000
   3915 O          26.8360    3.7300   10.2100 O.3   604  HOH604      0.0000
   3916 H1         26.1380    3.0940    9.8780 H     604  HOH604      0.0000
   3917 H2         26.5340    4.1530   11.0630 H     604  HOH604      0.0000
   3918 O           9.5930   23.8650   16.5440 O.3   605  HOH605      0.0000
   3919 H1          8.6080   23.8990   16.3680 H     605  HOH605      0.0000
   3920 H2          9.8520   22.9510   16.8560 H     605  HOH605      0.0000
   3921 O          12.8260    9.6600   19.1970 O.3   606  HOH606      0.0000
   3922 H1         11.9380    9.2150   19.0740 H     606  HOH606      0.0000
   3923 H2         13.5600    8.9860   19.1210 H     606  HOH606      0.0000
   3924 O          13.9560    7.0720   51.4050 O.3   607  HOH607      0.0000
   3925 H1         14.1780    7.2230   52.3700 H     607  HOH607      0.0000
   3926 H2         14.4980    7.6830   50.8300 H     607  HOH607      0.0000
   3927 O          28.2530   26.5500    2.6430 O.3   608  HOH608      0.0000
   3928 H1         28.9700   27.1030    3.0710 H     608  HOH608      0.0000
   3929 H2         28.1460   26.8130    1.6850 H     608  HOH608      0.0000
   3930 O          12.8200    4.6630   20.6290 O.3   609  HOH609      0.0000
   3931 H1         13.1320    3.7710   20.9620 H     609  HOH609      0.0000
   3932 H2         12.6700    4.6250   19.6420 H     609  HOH609      0.0000
   3933 O          18.4790   13.2280   10.6640 O.3   610  HOH610      0.0000
   3934 H1         18.2020   14.1590   10.4240 H     610  HOH610      0.0000
   3935 H2         19.2140   12.9240   10.0590 H     610  HOH610      0.0000
   3936 O          21.0720   28.9080    6.9590 O.3   611  HOH611      0.0000
   3937 H1         20.0760   28.8800    7.0550 H     611  HOH611      0.0000
   3938 H2         21.3830   29.8560    6.9020 H     611  HOH611      0.0000
   3939 O          23.6130   12.1050   73.6570 O.3   612  HOH612      0.0000
   3940 H1         24.2800   11.4430   74.0020 H     612  HOH612      0.0000
   3941 H2         23.8980   12.4400   72.7600 H     612  HOH612      0.0000
   3942 O          23.4950   24.7800   19.8790 O.3   613  HOH613      0.0000
   3943 H1         23.7870   23.9820   19.3490 H     613  HOH613      0.0000
   3944 H2         23.3140   25.5490   19.2670 H     613  HOH613      0.0000
   3945 O           3.1200    7.6810   58.4740 O.3   614  HOH614      0.0000
   3946 H1          2.8390    8.6150   58.7020 H     614  HOH614      0.0000
   3947 H2          2.3140    7.1070   58.3300 H     614  HOH614      0.0000
   3948 O          29.6510   15.3950   12.0440 O.3   615  HOH615      0.0000
   3949 H1         29.5970   14.7180   11.3070 H     615  HOH615      0.0000
   3950 H2         28.7760   15.4490   12.5230 H     615  HOH615      0.0000
   3951 O          23.2260   10.1610   13.5500 O.3   616  HOH616      0.0000
   3952 H1         22.8490    9.8210   14.4130 H     616  HOH616      0.0000
   3953 H2         24.1220   10.5730   13.7080 H     616  HOH616      0.0000
   3954 O          15.2990   20.6070   18.9790 O.3   617  HOH617      0.0000
   3955 H1         15.7180   21.4440   19.3340 H     617  HOH617      0.0000
   3956 H2         15.0150   20.7430   18.0310 H     617  HOH617      0.0000
   3957 O          15.7940   17.9600   16.7580 O.3   618  HOH618      0.0000
   3958 H1         15.1820   17.5300   16.0930 H     618  HOH618      0.0000
   3959 H2         15.3350   18.7340   17.1930 H     618  HOH618      0.0000
   3960 O          28.2490   14.5990    6.7580 O.3   619  HOH619      0.0000
   3961 H1         29.0070   15.1960    6.4920 H     619  HOH619      0.0000
   3962 H2         28.6040   13.7540    7.1570 H     619  HOH619      0.0000
   3963 O           6.7360   20.1040   62.6610 O.3   620  HOH620      0.0000
   3964 H1          6.5770   19.3930   61.9740 H     620  HOH620      0.0000
   3965 H2          7.6640   20.4650   62.5710 H     620  HOH620      0.0000
   3966 O          10.9750    1.8230   10.5450 O.3   621  HOH621      0.0000
   3967 H1         10.0180    1.5310   10.4940 H     621  HOH621      0.0000
   3968 H2         11.0390    2.8090   10.3990 H     621  HOH621      0.0000
   3969 O          29.2270    5.5410   14.7140 O.3   622  HOH622      0.0000
   3970 H1         29.6930    6.3740   15.0160 H     622  HOH622      0.0000
   3971 H2         28.7040    5.7250   13.8830 H     622  HOH622      0.0000
   3972 O           2.3020   32.2410   19.7840 O.3   623  HOH623      0.0000
   3973 H1          2.9230   31.8490   19.1030 H     623  HOH623      0.0000
   3974 H2          2.3530   31.7180   20.6340 H     623  HOH623      0.0000
   3975 O          26.3290   23.1060   70.4150 O.3   624  HOH624      0.0000
   3976 H1         25.6120   23.2900   71.0890 H     624  HOH624      0.0000
   3977 H2         26.5850   23.9520   69.9490 H     624  HOH624      0.0000
   3978 O           1.9360    4.1040   71.0210 O.3   625  HOH625      0.0000
   3979 H1          1.2190    3.7870   71.6440 H     625  HOH625      0.0000
   3980 H2          2.8100    3.6850   71.2640 H     625  HOH625      0.0000
   3981 O          30.3790    2.3190   50.5250 O.3   626  HOH626      0.0000
   3982 H1         30.1440    1.4150   50.1650 H     626  HOH626      0.0000
   3983 H2         29.9690    2.4440   51.4280 H     626  HOH626      0.0000
   3984 O          17.6550    9.5860   16.6240 O.3   627  HOH627      0.0000
   3985 H1         17.6600   10.0450   17.5130 H     627  HOH627      0.0000
   3986 H2         16.7150    9.3990   16.3410 H     627  HOH627      0.0000
   3987 O          29.6300    4.7410   21.7080 O.3   628  HOH628      0.0000
   3988 H1         29.3550    5.1520   20.8370 H     628  HOH628      0.0000
   3989 H2         28.8590    4.7370   22.3430 H     628  HOH628      0.0000
   3990 O           2.7920    9.5150   65.3900 O.3   629  HOH629      0.0000
   3991 H1          3.2350    8.6710   65.6980 H     629  HOH629      0.0000
   3992 H2          3.4800   10.1690   65.0790 H     629  HOH629      0.0000
   3993 O           7.4580   23.6760   70.0840 O.3   630  HOH630      0.0000
   3994 H1          8.3360   23.5310   69.6260 H     630  HOH630      0.0000
   3995 H2          7.5330   23.4350   71.0510 H     630  HOH630      0.0000
   3996 O          23.6910   26.3570   10.2790 O.3   631  HOH631      0.0000
   3997 H1         23.6690   27.2600   10.7100 H     631  HOH631      0.0000
   3998 H2         23.0540   25.7420   10.7400 H     631  HOH631      0.0000
   3999 O           6.4920   17.8550   58.4100 O.3   632  HOH632      0.0000
   4000 H1          6.1980   18.7510   58.0730 H     632  HOH632      0.0000
   4001 H2          6.3670   17.8050   59.4000 H     632  HOH632      0.0000
   4002 O          25.9690   10.1650   56.2200 O.3   633  HOH633      0.0000
   4003 H1         26.7600   10.7740   56.3040 H     633  HOH633      0.0000
   4004 H2         25.5280   10.0530   57.1090 H     633  HOH633      0.0000
   4005 O          24.3320    1.5740   16.8190 O.3   634  HOH634      0.0000
   4006 H1         24.5700    1.0010   16.0330 H     634  HOH634      0.0000
   4007 H2         24.0160    1.0020   17.5750 H     634  HOH634      0.0000
   4008 O          27.3500   32.2460    5.5780 O.3   635  HOH635      0.0000
   4009 H1         27.8780   31.4720    5.2250 H     635  HOH635      0.0000
   4010 H2         27.0080   32.0370    6.4930 H     635  HOH635      0.0000
   4011 O          24.9620   24.3420   10.5650 O.3   636  HOH636      0.0000
   4012 H1         25.9150   24.5420   10.7980 H     636  HOH636      0.0000
   4013 H2         24.8870   23.4160   10.1980 H     636  HOH636      0.0000
   4014 O          22.1420   30.0710   73.2470 O.3   637  HOH637      0.0000
   4015 H1         22.9110   29.9010   73.8650 H     637  HOH637      0.0000
   4016 H2         22.4570   30.5620   72.4360 H     637  HOH637      0.0000
   4017 O          20.2650   22.8280   16.6210 O.3   638  HOH638      0.0000
   4018 H1         19.5090   23.2010   16.0800 H     638  HOH638      0.0000
   4019 H2         20.1890   23.1320   17.5700 H     638  HOH638      0.0000
   4020 O           9.4780   32.2410   60.1390 O.3   639  HOH639      0.0000
   4021 H1          8.6820   31.7540   60.5030 H     639  HOH639      0.0000
   4022 H2          9.6850   31.9140   59.2170 H     639  HOH639      0.0000
   4023 O          23.1070   31.2500   10.6600 O.3   640  HOH640      0.0000
   4024 H1         23.0520   30.8310   11.5670 H     640  HOH640      0.0000
   4025 H2         23.6860   30.6970   10.0620 H     640  HOH640      0.0000
   4026 O           8.4600   18.7880    3.8430 O.3   641  HOH641      0.0000
   4027 H1          9.1950   19.4130    4.1070 H     641  HOH641      0.0000
   4028 H2          7.7830   19.2710    3.2890 H     641  HOH641      0.0000
   4029 O          21.5810   13.2600   19.6260 O.3   642  HOH642      0.0000
   4030 H1         21.0350   14.0330   19.2990 H     642  HOH642      0.0000
   4031 H2         22.1270   13.5380   20.4160 H     642  HOH642      0.0000
   4032 O          33.2600   13.7950   71.4450 O.3   643  HOH643      0.0000
   4033 H1         33.1430   12.8340   71.1880 H     643  HOH643      0.0000
   4034 H2         32.9660   13.9330   72.3900 H     643  HOH643      0.0000
   4035 O           4.9060   31.4270   61.1010 O.3   644  HOH644      0.0000
   4036 H1          5.4780   32.2360   61.2450 H     644  HOH644      0.0000
   4037 H2          4.0270   31.6960   60.7080 H     644  HOH644      0.0000
   4038 O           1.5050   26.4420   57.0450 O.3   645  HOH645      0.0000
   4039 H1          1.4320   27.4290   57.1970 H     645  HOH645      0.0000
   4040 H2          1.0000   26.1850   56.2220 H     645  HOH645      0.0000
   4041 O          23.1910   31.8110    1.6300 O.3   646  HOH646      0.0000
   4042 H1         23.7970   31.0560    1.3750 H     646  HOH646      0.0000
   4043 H2         23.5220   32.2480    2.4660 H     646  HOH646      0.0000
   4044 O           7.2860   30.2900   74.0000 O.3   647  HOH647      0.0000
   4045 H1          6.7370   31.1220   73.9160 H     647  HOH647      0.0000
   4046 H2          7.6520   30.0300   73.1070 H     647  HOH647      0.0000
   4047 O           3.8310   19.6290   72.6590 O.3   648  HOH648      0.0000
   4048 H1          4.0090   20.4560   72.1240 H     648  HOH648      0.0000
   4049 H2          3.3570   19.8660   73.5060 H     648  HOH648      0.0000
   4050 O          19.3650   13.4350   20.6600 O.3   649  HOH649      0.0000
   4051 H1         20.1150   13.5940   21.3030 H     649  HOH649      0.0000
   4052 H2         19.5410   12.6090   20.1270 H     649  HOH649      0.0000
   4053 O          28.9290    9.5790   61.3260 O.3   650  HOH650      0.0000
   4054 H1         29.8950    9.4200   61.1180 H     650  HOH650      0.0000
   4055 H2         28.3880    8.7800   61.0680 H     650  HOH650      0.0000
   4056 O          24.9640   32.1370   64.2530 O.3   651  HOH651      0.0000
   4057 H1         24.8090   31.1700   64.4580 H     651  HOH651      0.0000
   4058 H2         25.7890   32.2400   63.6990 H     651  HOH651      0.0000
   4059 O          21.0250   18.2520   17.8040 O.3   652  HOH652      0.0000
   4060 H1         20.0870   18.2650   18.1540 H     652  HOH652      0.0000
   4061 H2         21.4360   17.3550   17.9620 H     652  HOH652      0.0000
   4062 O           1.0030    8.2050    1.9350 O.3   653  HOH653      0.0000
   4063 H1          1.9440    8.0760    2.2500 H     653  HOH653      0.0000
   4064 H2          1.0000    8.5570    1.0000 H     653  HOH653      0.0000
   4065 O           7.3940   24.4680    1.3330 O.3   654  HOH654      0.0000
   4066 H1          7.7020   25.4210    1.3130 H     654  HOH654      0.0000
   4067 H2          7.5120   24.0900    2.2500 H     654  HOH654      0.0000
   4068 O           1.9910    5.0600   56.2610 O.3   655  HOH655      0.0000
   4069 H1          1.1090    4.5880   56.2980 H     655  HOH655      0.0000
   4070 H2          2.4570    4.8470   55.4020 H     655  HOH655      0.0000
   4071 O           1.1600   15.2240   64.9390 O.3   656  HOH656      0.0000
   4072 H1          2.1420   15.1470   65.1220 H     656  HOH656      0.0000
   4073 H2          1.0000   15.8960   64.2170 H     656  HOH656      0.0000
   4074 O          29.3590   12.0680   55.9660 O.3   657  HOH657      0.0000
   4075 H1         28.3940   12.2410   56.1690 H     657  HOH657      0.0000
   4076 H2         29.9380   12.6360   56.5490 H     657  HOH657      0.0000
   4077 O          25.0390   14.2000    8.7400 O.3   658  HOH658      0.0000
   4078 H1         25.1100   14.7250    9.5890 H     658  HOH658      0.0000
   4079 H2         25.5500   14.6570    8.0130 H     658  HOH658      0.0000
   4080 O           6.8790    7.4560   58.3860 O.3   659  HOH659      0.0000
   4081 H1          7.3580    7.1750   59.2190 H     659  HOH659      0.0000
   4082 H2          6.6880    6.6580   57.8160 H     659  HOH659      0.0000
   4083 O          11.4570   16.0120   57.2670 O.3   660  HOH660      0.0000
   4084 H1         11.8460   15.2030   56.8220 H     660  HOH660      0.0000
   4085 H2         10.5560   15.7950   57.6410 H     660  HOH660      0.0000
   4086 O           6.1500   25.8460   71.9390 O.3   661  HOH661      0.0000
   4087 H1          5.6770   25.7480   72.8160 H     661  HOH661      0.0000
   4088 H2          6.0530   25.0090   71.4020 H     661  HOH661      0.0000
   4089 O          26.5830   23.3410   16.3450 O.3   662  HOH662      0.0000
   4090 H1         27.4920   23.6600   16.6200 H     662  HOH662      0.0000
   4091 H2         26.4250   23.5540   15.3810 H     662  HOH662      0.0000
   4092 O          16.7110   30.4270   16.4120 O.3   663  HOH663      0.0000
   4093 H1         16.6640   29.6820   15.7440 H     663  HOH663      0.0000
   4094 H2         15.8270   30.8900   16.4690 H     663  HOH663      0.0000
   4095 O          21.4540    2.3010   73.3870 O.3   664  HOH664      0.0000
   4096 H1         20.6590    1.8220   73.7620 H     664  HOH664      0.0000
   4097 H2         21.7270    3.0410   74.0000 H     664  HOH664      0.0000
   4098 O          14.7000   31.2170   54.8220 O.3   665  HOH665      0.0000
   4099 H1         15.4800   30.7780   55.2710 H     665  HOH665      0.0000
   4100 H2         14.9460   31.4790   53.8890 H     665  HOH665      0.0000
   4101 O          23.3900   13.4330   62.3450 O.3   666  HOH666      0.0000
   4102 H1         24.2320   13.2480   62.8550 H     666  HOH666      0.0000
   4103 H2         23.6120   13.7580   61.4270 H     666  HOH666      0.0000
   4104 O          14.8070   16.6770   18.8390 O.3   667  HOH667      0.0000
   4105 H1         14.2910   16.9930   18.0410 H     667  HOH667      0.0000
   4106 H2         15.3580   17.4250   19.2080 H     667  HOH667      0.0000
   4107 O          27.0990    1.2480   18.0870 O.3   668  HOH668      0.0000
   4108 H1         27.5850    2.0630   18.4080 H     668  HOH668      0.0000
   4109 H2         26.1130    1.4100   18.1010 H     668  HOH668      0.0000
   4110 O          18.3110   14.7940   14.8690 O.3   669  HOH669      0.0000
   4111 H1         18.3450   15.5040   15.5750 H     669  HOH669      0.0000
   4112 H2         17.8870   13.9670   15.2370 H     669  HOH669      0.0000
   4113 O          12.3740   14.2190   68.9900 O.3   670  HOH670      0.0000
   4114 H1         11.8730   14.1190   69.8520 H     670  HOH670      0.0000
   4115 H2         11.7550   14.5300   68.2700 H     670  HOH670      0.0000
   4116 O          23.9900   17.7850   21.3010 O.3   671  HOH671      0.0000
   4117 H1         24.3700   18.5660   20.8030 H     671  HOH671      0.0000
   4118 H2         24.6380   17.0240   21.2890 H     671  HOH671      0.0000
   4119 O           7.2730   24.6000   10.1970 O.3   672  HOH672      0.0000
   4120 H1          6.4710   25.1580    9.9810 H     672  HOH672      0.0000
   4121 H2          7.9350   24.6500    9.4500 H     672  HOH672      0.0000
   4122 O          15.3530   25.1800   59.2230 O.3   673  HOH673      0.0000
   4123 H1         14.8650   25.3010   60.0890 H     673  HOH673      0.0000
   4124 H2         15.8260   26.0260   58.9770 H     673  HOH673      0.0000
   4125 O          15.2990   21.4880   13.2100 O.3   674  HOH674      0.0000
   4126 H1         15.7820   21.7000   14.0620 H     674  HOH674      0.0000
   4127 H2         15.2100   22.3130   12.6540 H     674  HOH674      0.0000
   4128 O          12.1270   14.2020   61.0220 O.3   675  HOH675      0.0000
   4129 H1         11.3270   14.7160   61.3370 H     675  HOH675      0.0000
   4130 H2         11.9000   13.6910   60.1940 H     675  HOH675      0.0000
   4131 O          20.3090   32.2180   68.4220 O.3   676  HOH676      0.0000
   4132 H1         20.9790   32.2400   69.1660 H     676  HOH676      0.0000
   4133 H2         19.4760   31.7570   68.7260 H     676  HOH676      0.0000
   4134 O          15.1320   27.1600   12.0180 O.3   677  HOH677      0.0000
   4135 H1         15.9970   27.0230   12.5030 H     677  HOH677      0.0000
   4136 H2         14.3730   27.1650   12.6680 H     677  HOH677      0.0000
   4137 O          32.6060   18.6170   60.0260 O.3   678  HOH678      0.0000
   4138 H1         33.1940   19.3770   60.3070 H     678  HOH678      0.0000
   4139 H2         31.6950   18.9580   59.7940 H     678  HOH678      0.0000
   4140 O          11.8950    1.1000   60.6090 O.3   679  HOH679      0.0000
   4141 H1         12.4590    1.0000   61.4300 H     679  HOH679      0.0000
   4142 H2         11.3580    1.9410   60.6640 H     679  HOH679      0.0000
   4143 O          25.2600   15.3780   13.0690 O.3   680  HOH680      0.0000
   4144 H1         25.0610   15.9270   13.8820 H     680  HOH680      0.0000
   4145 H2         26.2440   15.3670   12.8970 H     680  HOH680      0.0000
   4146 O          17.0510   11.1780   73.4210 O.3   681  HOH681      0.0000
   4147 H1         17.8140   10.7920   73.9410 H     681  HOH681      0.0000
   4148 H2         16.5170   11.7910   74.0020 H     681  HOH681      0.0000
   4149 O          23.0390    1.6640   65.6080 O.3   682  HOH682      0.0000
   4150 H1         23.7860    2.0950   66.1170 H     682  HOH682      0.0000
   4151 H2         22.4750    2.3640   65.1720 H     682  HOH682      0.0000
   4152 O          11.6240   22.7500    7.3430 O.3   683  HOH683      0.0000
   4153 H1         12.1090   23.5250    6.9350 H     683  HOH683      0.0000
   4154 H2         11.2640   22.1550    6.6250 H     683  HOH683      0.0000
   4155 O          17.1630   13.7700   73.2910 O.3   684  HOH684      0.0000
   4156 H1         17.1000   14.7690   73.2730 H     684  HOH684      0.0000
   4157 H2         16.8780   13.3940   72.4100 H     684  HOH684      0.0000
   4158 O          27.5920    1.6220    9.1070 O.3   685  HOH685      0.0000
   4159 H1         27.0970    1.6200    8.2370 H     685  HOH685      0.0000
   4160 H2         28.3790    1.0090    9.0530 H     685  HOH685      0.0000
   4161 O          12.4230    9.4660    5.7130 O.3   686  HOH686      0.0000
   4162 H1         11.9340   10.1330    6.2760 H     686  HOH686      0.0000
   4163 H2         11.8510    9.1820    4.9440 H     686  HOH686      0.0000
   4164 O          16.8580   29.3790   54.2780 O.3   687  HOH687      0.0000
   4165 H1         17.5350   29.9870   54.6960 H     687  HOH687      0.0000
   4166 H2         17.3050   28.7650   53.6280 H     687  HOH687      0.0000
   4167 O          18.5330   20.5610   17.4900 O.3   688  HOH688      0.0000
   4168 H1         18.6670   21.3250   16.8570 H     688  HOH688      0.0000
   4169 H2         19.2730   20.5410   18.1610 H     688  HOH688      0.0000
   4170 O          18.1930   15.4630    8.5100 O.3   689  HOH689      0.0000
   4171 H1         18.2380   16.3020    9.0540 H     689  HOH689      0.0000
   4172 H2         17.9690   15.6830    7.5610 H     689  HOH689      0.0000
   4173 O          18.1970   26.7160   67.7610 O.3   690  HOH690      0.0000
   4174 H1         17.6230   25.9630   67.4350 H     690  HOH690      0.0000
   4175 H2         18.1760   26.7530   68.7590 H     690  HOH690      0.0000
   4176 O           6.8330   11.8670    1.1360 O.3   691  HOH691      0.0000
   4177 H1          7.8240   11.8500    1.0000 H     691  HOH691      0.0000
   4178 H2          6.4930   10.9400    1.2930 H     691  HOH691      0.0000
   4179 O           1.6260   18.7660   13.6240 O.3   692  HOH692      0.0000
   4180 H1          1.3070   18.4660   14.5240 H     692  HOH692      0.0000
   4181 H2          1.0000   19.4500   13.2510 H     692  HOH692      0.0000
   4182 O           6.3960   15.8940   69.9370 O.3   693  HOH693      0.0000
   4183 H1          6.6330   16.3010   69.0540 H     693  HOH693      0.0000
   4184 H2          6.9560   16.2970   70.6600 H     693  HOH693      0.0000
   4185 O           4.6330   19.0890   69.9330 O.3   694  HOH694      0.0000
   4186 H1          4.1360   18.6800   70.7000 H     694  HOH694      0.0000
   4187 H2          4.8140   20.0540   70.1200 H     694  HOH694      0.0000
   4188 O           6.4090   18.3400   14.5160 O.3   695  HOH695      0.0000
   4189 H1          5.8320   19.0690   14.1440 H     695  HOH695      0.0000
   4190 H2          7.2790   18.7200   14.8310 H     695  HOH695      0.0000
   4191 O          33.2610   29.7730   64.6510 O.3   696  HOH696      0.0000
   4192 H1         32.3690   30.1550   64.8940 H     696  HOH696      0.0000
   4193 H2         33.2370   29.4140   63.7190 H     696  HOH696      0.0000
   4194 O          28.9330   27.2290   73.0500 O.3   697  HOH697      0.0000
   4195 H1         29.8420   26.8120   73.0060 H     697  HOH697      0.0000
   4196 H2         28.6330   27.2950   74.0010 H     697  HOH697      0.0000
   4197 O          19.9340   20.4830   11.2100 O.3   698  HOH698      0.0000
   4198 H1         19.1890   20.4630   10.5420 H     698  HOH698      0.0000
   4199 H2         19.5780   20.7250   12.1120 H     698  HOH698      0.0000
   4200 O          16.9810   11.5110   15.8010 O.3   699  HOH699      0.0000
   4201 H1         17.5990   11.9880   16.4270 H     699  HOH699      0.0000
   4202 H2         16.6950   12.1270   15.0680 H     699  HOH699      0.0000
   4203 O          20.5240   19.6230   69.9590 O.3   700  HOH700      0.0000
   4204 H1         20.1350   20.5000   69.6720 H     700  HOH700      0.0000
   4205 H2         20.5060   19.5510   70.9560 H     700  HOH700      0.0000
   4206 O          17.1100    4.7370    0.9990 O.3   701  HOH701      0.0000
   4207 H1         16.9920    5.7000    1.2470 H     701  HOH701      0.0000
   4208 H2         16.9510    4.1570    1.7960 H     701  HOH701      0.0000
   4209 O          25.2390    6.6350    8.9210 O.3   702  HOH702      0.0000
   4210 H1         24.2580    6.4780    8.7960 H     702  HOH702      0.0000
   4211 H2         25.7260    5.7620    8.9250 H     702  HOH702      0.0000
   4212 O          25.8780    6.5260   22.2500 O.3   703  HOH703      0.0000
   4213 H1         25.9530    7.4270   21.8180 H     703  HOH703      0.0000
   4214 H2         26.1890    6.5750   23.1980 H     703  HOH703      0.0000
   4215 O          17.2910    5.8480   64.9630 O.3   704  HOH704      0.0000
   4216 H1         17.8910    5.0600   64.8170 H     704  HOH704      0.0000
   4217 H2         16.6390    5.6490   65.6940 H     704  HOH704      0.0000
   4218 O           9.5880   13.3670   61.0700 O.3   705  HOH705      0.0000
   4219 H1         10.1570   12.6860   61.5330 H     705  HOH705      0.0000
   4220 H2          9.6830   13.2760   60.0800 H     705  HOH705      0.0000
   4221 O          19.9900   26.2250   11.1050 O.3   706  HOH706      0.0000
   4222 H1         19.3090   26.7020   10.5480 H     706  HOH706      0.0000
   4223 H2         20.9110   26.4910   10.8220 H     706  HOH706      0.0000
   4224 O           8.0120    6.8050   52.8750 O.3   707  HOH707      0.0000
   4225 H1          8.3560    5.9970   53.3550 H     707  HOH707      0.0000
   4226 H2          7.8060    7.5310   53.5310 H     707  HOH707      0.0000
   4227 O          18.1210   21.9550   62.2570 O.3   708  HOH708      0.0000
   4228 H1         19.0100   21.7980   61.8250 H     708  HOH708      0.0000
   4229 H2         18.2090   21.8970   63.2510 H     708  HOH708      0.0000
   4230 O          21.9540   17.9090    7.9510 O.3   709  HOH709      0.0000
   4231 H1         21.0840   18.0600    7.4800 H     709  HOH709      0.0000
   4232 H2         21.7870   17.6430    8.9000 H     709  HOH709      0.0000
   4233 O          27.8820   10.3790   67.2340 O.3   710  HOH710      0.0000
   4234 H1         27.7710    9.9290   66.3460 H     710  HOH710      0.0000
   4235 H2         28.0050    9.6930   67.9500 H     710  HOH710      0.0000
   4236 O          24.7610   29.6140    7.1680 O.3   711  HOH711      0.0000
   4237 H1         25.1740   30.4130    7.6090 H     711  HOH711      0.0000
   4238 H2         24.3240   29.8850    6.3120 H     711  HOH711      0.0000
   4239 O          18.4920   22.4340    4.9210 O.3   712  HOH712      0.0000
   4240 H1         18.1510   22.9760    4.1520 H     712  HOH712      0.0000
   4241 H2         18.6450   23.0240    5.7130 H     712  HOH712      0.0000
   4242 O          19.4090   11.1120   11.2930 O.3   713  HOH713      0.0000
   4243 H1         19.6360   11.8400   11.9420 H     713  HOH713      0.0000
   4244 H2         19.1700   10.2770   11.7860 H     713  HOH713      0.0000
   4245 O          17.6980   13.2830   12.9860 O.3   714  HOH714      0.0000
   4246 H1         17.3320   12.3510   12.9760 H     714  HOH714      0.0000
   4247 H2         18.6500   13.2730   13.2880 H     714  HOH714      0.0000
   4248 O           6.8220   19.1040   53.4080 O.3   715  HOH715      0.0000
   4249 H1          7.3070   18.2690   53.6730 H     715  HOH715      0.0000
   4250 H2          6.7180   19.7030   54.2010 H     715  HOH715      0.0000
   4251 O          26.8300   29.8560    6.2730 O.3   716  HOH716      0.0000
   4252 H1         27.0750   29.4070    7.1340 H     716  HOH716      0.0000
   4253 H2         26.3330   29.2180    5.6850 H     716  HOH716      0.0000
   4254 O           1.8560   18.1280    2.6540 O.3   717  HOH717      0.0000
   4255 H1          1.3860   19.0030    2.7780 H     717  HOH717      0.0000
   4256 H2          1.5540   17.6950    1.8060 H     717  HOH717      0.0000
   4257 O          32.1050   25.4580   54.7090 O.3   718  HOH718      0.0000
   4258 H1         32.9160   24.8780   54.7950 H     718  HOH718      0.0000
   4259 H2         32.3710   26.3800   54.4330 H     718  HOH718      0.0000
   4260 O           6.0480   28.7070   61.8750 O.3   719  HOH719      0.0000
   4261 H1          6.3400   29.1510   62.7240 H     719  HOH719      0.0000
   4262 H2          6.5570   27.8570   61.7420 H     719  HOH719      0.0000
   4263 O          23.1170   11.0080   67.9400 O.3   720  HOH720      0.0000
   4264 H1         23.5150   10.0920   68.0120 H     720  HOH720      0.0000
   4265 H2         23.2900   11.5220   68.7790 H     720  HOH720      0.0000
   4266 O          30.4720    8.5580   65.7570 O.3   721  HOH721      0.0000
   4267 H1         29.8550    9.2870   66.0560 H     721  HOH721      0.0000
   4268 H2         30.2940    8.3310   64.7990 H     721  HOH721      0.0000
   4269 O          11.4950   20.7710    8.3190 O.3   722  HOH722      0.0000
   4270 H1         12.2940   20.1700    8.3760 H     722  HOH722      0.0000
   4271 H2         10.7410   20.3880    8.8510 H     722  HOH722      0.0000
   4272 O          22.2190   29.4130   55.8880 O.3   723  HOH723      0.0000
   4273 H1         22.9750   28.7600   55.8200 H     723  HOH723      0.0000
   4274 H2         22.4960   30.2960   55.5110 H     723  HOH723      0.0000
   4275 O          17.1610   15.0580    1.3230 O.3   724  HOH724      0.0000
   4276 H1         17.4250   15.9680    1.0010 H     724  HOH724      0.0000
   4277 H2         16.3080   15.1130    1.8400 H     724  HOH724      0.0000
   4278 O          14.5260    6.6560   19.6420 O.3   725  HOH725      0.0000
   4279 H1         15.1640    7.3890   19.8810 H     725  HOH725      0.0000
   4280 H2         14.0990    6.8500   18.7600 H     725  HOH725      0.0000
   4281 O           5.0100   23.6380   56.0970 O.3   726  HOH726      0.0000
   4282 H1          5.4200   23.0820   55.3720 H     726  HOH726      0.0000
   4283 H2          5.1820   23.2180   56.9880 H     726  HOH726      0.0000
   4284 O          18.4930    2.1380   64.4390 O.3   727  HOH727      0.0000
   4285 H1         17.9290    2.8260   64.8990 H     727  HOH727      0.0000
   4286 H2         18.0140    1.7850   63.6360 H     727  HOH727      0.0000
   4287 O           9.8060    8.2610   64.1300 O.3   728  HOH728      0.0000
   4288 H1          9.1170    7.5370   64.1910 H     728  HOH728      0.0000
   4289 H2         10.5380    8.0920   64.7890 H     728  HOH728      0.0000
   4290 O           9.8130    7.2840   10.4480 O.3   729  HOH729      0.0000
   4291 H1         10.5350    6.6990   10.8200 H     729  HOH729      0.0000
   4292 H2         10.0910    7.6470    9.5590 H     729  HOH729      0.0000
   4293 O           8.8550   22.8690   73.6680 O.3   730  HOH730      0.0000
   4294 H1          8.7850   22.7120   72.6810 H     730  HOH730      0.0000
   4295 H2          9.7330   22.5340   74.0050 H     730  HOH730      0.0000
   4296 O          28.1460   13.5110   13.3470 O.3   731  HOH731      0.0000
   4297 H1         27.1740   13.4960   13.5850 H     731  HOH731      0.0000
   4298 H2         28.2920   13.0400   12.4770 H     731  HOH731      0.0000
   4299 O           9.2010   10.1460    1.2060 O.3   732  HOH732      0.0000
   4300 H1          8.3060    9.7070    1.1160 H     732  HOH732      0.0000
   4301 H2          9.9260    9.4910    1.0000 H     732  HOH732      0.0000
   4302 O          32.6550   15.6050   61.6900 O.3   733  HOH733      0.0000
   4303 H1         33.2600   14.9090   61.3010 H     733  HOH733      0.0000
   4304 H2         32.5010   16.3340   61.0240 H     733  HOH733      0.0000
   4305 O          25.0280   12.7210   19.3380 O.3   734  HOH734      0.0000
   4306 H1         24.1220   12.9420   19.7040 H     734  HOH734      0.0000
   4307 H2         24.9400   12.3310   18.4220 H     734  HOH734      0.0000
   4308 O          32.0630    1.7390   17.5690 O.3   735  HOH735      0.0000
   4309 H1         31.9520    1.0000   16.9020 H     735  HOH735      0.0000
   4310 H2         32.0510    1.3670   18.4960 H     735  HOH735      0.0000
   4311 O           4.5800   10.2510   59.3700 O.3   736  HOH736      0.0000
   4312 H1          3.6570   10.3840   59.7330 H     736  HOH736      0.0000
   4313 H2          4.8750   11.0690   58.8770 H     736  HOH736      0.0000
   4314 O          23.6730   27.9180   15.6730 O.3   737  HOH737      0.0000
   4315 H1         23.6790   27.0600   15.1570 H     737  HOH737      0.0000
   4316 H2         24.2350   27.8260   16.4940 H     737  HOH737      0.0000
   4317 O          14.5860    1.0000   55.1260 O.3   738  HOH738      0.0000
   4318 H1         13.7210    1.0020   55.6290 H     738  HOH738      0.0000
   4319 H2         14.4130    1.1080   54.1470 H     738  HOH738      0.0000
   4320 O          20.8310   11.9390   53.2920 O.3   739  HOH739      0.0000
   4321 H1         21.7450   11.6160   53.0430 H     739  HOH739      0.0000
   4322 H2         20.5950   12.7460   52.7510 H     739  HOH739      0.0000
   4323 O          23.0320   10.0370    8.5540 O.3   740  HOH740      0.0000
   4324 H1         23.8730    9.5820    8.8510 H     740  HOH740      0.0000
   4325 H2         22.7380    9.6710    7.6720 H     740  HOH740      0.0000
   4326 O          22.5130   14.3430   65.1870 O.3   741  HOH741      0.0000
   4327 H1         22.3110   15.2800   64.9010 H     741  HOH741      0.0000
   4328 H2         22.6400   13.7610   64.3850 H     741  HOH741      0.0000
   4329 O          26.6280    1.4020   55.0890 O.3   742  HOH742      0.0000
   4330 H1         25.7150    1.3100   55.4880 H     742  HOH742      0.0000
   4331 H2         26.6430    1.0000   54.1750 H     742  HOH742      0.0000
   4332 O          31.2070   31.6980   69.1510 O.3   743  HOH743      0.0000
   4333 H1         31.1670   31.8390   68.1610 H     743  HOH743      0.0000
   4334 H2         31.9490   32.2400   69.5440 H     743  HOH743      0.0000
   4335 O          20.5980   14.3360   56.5780 O.3   744  HOH744      0.0000
   4336 H1         21.1400   15.1740   56.6610 H     744  HOH744      0.0000
   4337 H2         20.0080   14.2300   57.3770 H     744  HOH744      0.0000
   4338 O          27.6090   24.3700   19.5990 O.3   745  HOH745      0.0000
   4339 H1         27.7380   25.3540   19.7300 H     745  HOH745      0.0000
   4340 H2         26.9490   24.2070   18.8660 H     745  HOH745      0.0000
   4341 O          25.4640   10.2660    5.4990 O.3   746  HOH746      0.0000
   4342 H1         26.1650    9.5610    5.3810 H     746  HOH746      0.0000
   4343 H2         25.0900   10.2250    6.4240 H     746  HOH746      0.0000
   4344 O          26.3600   27.3220    3.4540 O.3   747  HOH747      0.0000
   4345 H1         25.8060   28.0120    3.9230 H     747  HOH747      0.0000
   4346 H2         26.1630   27.3340    2.4750 H     747  HOH747      0.0000
   4347 O          24.4110   20.8480   67.1090 O.3   748  HOH748      0.0000
   4348 H1         25.3840   21.0480   67.2330 H     748  HOH748      0.0000
   4349 H2         24.0740   21.2960   66.2820 H     748  HOH748      0.0000
   4350 O           3.4390    8.0770    7.7290 O.3   749  HOH749      0.0000
   4351 H1          4.2420    7.4820    7.7910 H     749  HOH749      0.0000
   4352 H2          3.5080    8.6610    6.9210 H     749  HOH749      0.0000
   4353 O           9.4390   15.3220    1.2210 O.3   750  HOH750      0.0000
   4354 H1          9.4920   15.8350    2.0780 H     750  HOH750      0.0000
   4355 H2         10.1640   14.6340    1.1890 H     750  HOH750      0.0000
   4356 O          30.0790    4.5210   12.6590 O.3   751  HOH751      0.0000
   4357 H1         30.5540    4.6550   11.7880 H     751  HOH751      0.0000
   4358 H2         29.5040    3.7050   12.6130 H     751  HOH751      0.0000
   4359 O          30.2530   28.8510   53.9870 O.3   752  HOH752      0.0000
   4360 H1         31.1010   28.3310   54.0940 H     752  HOH752      0.0000
   4361 H2         29.4750   28.3030   54.2920 H     752  HOH752      0.0000
   4362 O          18.9140   10.0650   20.8900 O.3   753  HOH753      0.0000
   4363 H1         18.3880   10.6770   20.2970 H     753  HOH753      0.0000
   4364 H2         18.3190    9.3530   21.2610 H     753  HOH753      0.0000
   4365 O          24.6990    1.4700    8.3120 O.3   754  HOH754      0.0000
   4366 H1         25.1090    0.9980    7.5300 H     754  HOH754      0.0000
   4367 H2         24.6640    2.4530    8.1380 H     754  HOH754      0.0000
   4368 O           7.2380   23.5760    7.6620 O.3   755  HOH755      0.0000
   4369 H1          7.0720   23.0350    6.8350 H     755  HOH755      0.0000
   4370 H2          6.4410   23.5310    8.2640 H     755  HOH755      0.0000
   4371 O           9.5850    1.0000   15.2310 O.3   756  HOH756      0.0000
   4372 H1          8.6560    1.3720   15.2640 H     756  HOH756      0.0000
   4373 H2          9.9250    1.0140   14.2920 H     756  HOH756      0.0000
   4374 O          31.3080   28.2340    6.1220 O.3   757  HOH757      0.0000
   4375 H1         30.9630   28.2970    5.1840 H     757  HOH757      0.0000
   4376 H2         30.8570   28.9150    6.6990 H     757  HOH757      0.0000
   4377 O          22.3830    6.7890   13.2980 O.3   758  HOH758      0.0000
   4378 H1         22.1040    7.7410   13.4310 H     758  HOH758      0.0000
   4379 H2         23.2160    6.7510   12.7480 H     758  HOH758      0.0000
   4380 O          14.0710   15.1270   56.7630 O.3   759  HOH759      0.0000
   4381 H1         13.8280   14.3050   57.2800 H     759  HOH759      0.0000
   4382 H2         14.1340   15.9110   57.3790 H     759  HOH759      0.0000
   4383 O          26.6910   14.9590   61.7690 O.3   760  HOH760      0.0000
   4384 H1         26.0000   14.4160   62.2490 H     760  HOH760      0.0000
   4385 H2         27.3020   14.3570   61.2560 H     760  HOH760      0.0000
   4386 O          11.0700    1.9350   57.0400 O.3   761  HOH761      0.0000
   4387 H1         11.3060    1.0470   57.4380 H     761  HOH761      0.0000
   4388 H2         11.6680    2.1310   56.2640 H     761  HOH761      0.0000
   4389 O          23.0410    6.9070   61.4840 O.3   762  HOH762      0.0000
   4390 H1         23.0910    6.7030   60.5050 H     762  HOH762      0.0000
   4391 H2         22.9050    6.0640   62.0020 H     762  HOH762      0.0000
   4392 O          17.4040   23.0820   14.6350 O.3   763  HOH763      0.0000
   4393 H1         17.3960   22.8330   15.6050 H     763  HOH763      0.0000
   4394 H2         18.3150   22.9340   14.2520 H     763  HOH763      0.0000
   4395 O           1.0000   16.1220    6.6260 O.3   764  HOH764      0.0000
   4396 H1          1.8940   15.6890    6.7460 H     764  HOH764      0.0000
   4397 H2          1.1160   17.0940    6.4230 H     764  HOH764      0.0000
   4398 O          33.2630    9.5700   20.9260 O.3   765  HOH765      0.0000
   4399 H1         33.2580    9.8540   19.9660 H     765  HOH765      0.0000
   4400 H2         33.1890   10.3700   21.5190 H     765  HOH765      0.0000
   4401 O          28.3530   24.9210   62.4890 O.3   766  HOH766      0.0000
   4402 H1         27.8460   24.1510   62.1000 H     766  HOH766      0.0000
   4403 H2         29.0560   24.5870   63.1150 H     766  HOH766      0.0000
   4404 O          31.2180   11.3230   15.3790 O.3   767  HOH767      0.0000
   4405 H1         31.1660   12.2640   15.0410 H     767  HOH767      0.0000
   4406 H2         32.1720   11.0690   15.5350 H     767  HOH767      0.0000
   4407 O          29.4900   14.1760    4.1590 O.3   768  HOH768      0.0000
   4408 H1         28.7200   13.8870    4.7290 H     768  HOH768      0.0000
   4409 H2         29.7200   15.1290    4.3520 H     768  HOH768      0.0000
   4410 O           6.7090   29.7560   67.9300 O.3   769  HOH769      0.0000
   4411 H1          7.5870   29.3140   67.7410 H     769  HOH769      0.0000
   4412 H2          6.4790   29.6590   68.8980 H     769  HOH769      0.0000
   4413 O          20.1940    4.2850   72.3970 O.3   770  HOH770      0.0000
   4414 H1         20.7270    3.6640   71.8210 H     770  HOH770      0.0000
   4415 H2         20.5410    5.2170   72.3070 H     770  HOH770      0.0000
   4416 O           2.7350   25.4810   54.1670 O.3   771  HOH771      0.0000
   4417 H1          3.5990   25.9670   54.0320 H     771  HOH771      0.0000
   4418 H2          2.6400   25.2120   55.1250 H     771  HOH771      0.0000
   4419 O           6.6510   29.2190    6.1180 O.3   772  HOH772      0.0000
   4420 H1          7.5150   29.5350    5.7220 H     772  HOH772      0.0000
   4421 H2          6.0930   30.0030    6.3890 H     772  HOH772      0.0000
   4422 O          10.8220   22.8210    4.3640 O.3   773  HOH773      0.0000
   4423 H1         10.2860   23.2260    3.6210 H     773  HOH773      0.0000
   4424 H2         11.2450   23.5410    4.9120 H     773  HOH773      0.0000
   4425 O           7.0000   12.1210   61.1680 O.3   774  HOH774      0.0000
   4426 H1          7.5060   12.7720   61.7360 H     774  HOH774      0.0000
   4427 H2          7.3580   12.1310   60.2350 H     774  HOH774      0.0000
   4428 O          27.2310   32.2240   56.0480 O.3   775  HOH775      0.0000
   4429 H1         27.0060   31.2960   56.3500 H     775  HOH775      0.0000
   4430 H2         28.0780   32.2140   55.5180 H     775  HOH775      0.0000
   4431 O          22.1880   13.1780   54.6160 O.3   776  HOH776      0.0000
   4432 H1         23.0420   12.7150   54.8590 H     776  HOH776      0.0000
   4433 H2         22.3070   13.6870   53.7640 H     776  HOH776      0.0000
   4434 O          12.3750   27.4560   19.2640 O.3   777  HOH777      0.0000
   4435 H1         12.6090   26.6320   18.7460 H     777  HOH777      0.0000
   4436 H2         11.5210   27.3140   19.7630 H     777  HOH777      0.0000
   4437 O          28.2190   28.3690   63.2610 O.3   778  HOH778      0.0000
   4438 H1         28.6250   28.3810   64.1760 H     778  HOH778      0.0000
   4439 H2         28.8400   28.7990   62.6070 H     778  HOH778      0.0000
   4440 O          19.5580    9.9240   54.4800 O.3   779  HOH779      0.0000
   4441 H1         19.8650   10.7810   54.8960 H     779  HOH779      0.0000
   4442 H2         18.8980    9.4710   55.0790 H     779  HOH779      0.0000
   4443 O          20.4220    9.8230   66.9500 O.3   780  HOH780      0.0000
   4444 H1         20.4490    8.9390   66.4790 H     780  HOH780      0.0000
   4445 H2         21.2550    9.9490   67.4870 H     780  HOH780      0.0000
   4446 O          31.1390   19.6370   53.0010 O.3   781  HOH781      0.0000
   4447 H1         30.5850   19.7510   52.1750 H     781  HOH781      0.0000
   4448 H2         30.5830   19.8070   53.8130 H     781  HOH781      0.0000
   4449 O           5.2910   26.9520   68.4280 O.3   782  HOH782      0.0000
   4450 H1          5.9810   27.0840   67.7140 H     782  HOH782      0.0000
   4451 H2          4.4730   26.5310   68.0390 H     782  HOH782      0.0000
   4452 O           4.8300    9.1540   18.6730 O.3   783  HOH783      0.0000
   4453 H1          4.8770    8.7850   17.7430 H     783  HOH783      0.0000
   4454 H2          4.7630   10.1510   18.6410 H     783  HOH783      0.0000
   4455 O          20.5760   29.4380   59.9440 O.3   784  HOH784      0.0000
   4456 H1         19.9430   28.6860   59.7570 H     784  HOH784      0.0000
   4457 H2         20.3160   30.2440   59.4130 H     784  HOH784      0.0000
   4458 O           4.4330   26.4050   65.7960 O.3   785  HOH785      0.0000
   4459 H1          4.6200   27.3650   66.0110 H     785  HOH785      0.0000
   4460 H2          5.2030   25.8360   66.0810 H     785  HOH785      0.0000
   4461 O          20.9450   23.7160   56.4870 O.3   786  HOH786      0.0000
   4462 H1         20.4220   24.3360   57.0740 H     786  HOH786      0.0000
   4463 H2         20.3480   23.3220   55.7890 H     786  HOH786      0.0000
   4464 O          31.2130   22.0780    9.1720 O.3   787  HOH787      0.0000
   4465 H1         31.1510   22.9880    9.5860 H     787  HOH787      0.0000
   4466 H2         30.3610   21.8620    8.6970 H     787  HOH787      0.0000
   4467 O           8.9000   27.4030   62.7760 O.3   788  HOH788      0.0000
   4468 H1          9.2800   27.0740   63.6420 H     788  HOH788      0.0000
   4469 H2          8.6670   26.6280   62.1890 H     788  HOH788      0.0000
   4470 O          32.0580    6.2190    8.2610 O.3   789  HOH789      0.0000
   4471 H1         31.3580    6.8740    7.9720 H     789  HOH789      0.0000
   4472 H2         32.4480    6.5020    9.1370 H     789  HOH789      0.0000
   4473 O          32.5820   31.3960    9.1970 O.3   790  HOH790      0.0000
   4474 H1         31.9280   30.7070    8.8810 H     790  HOH790      0.0000
   4475 H2         33.2600   31.5760    8.4850 H     790  HOH790      0.0000
   4476 O          14.7180   27.1130   64.7060 O.3   791  HOH791      0.0000
   4477 H1         14.2700   27.9450   65.0360 H     791  HOH791      0.0000
   4478 H2         14.3140   26.3110   65.1450 H     791  HOH791      0.0000
   4479 O          18.9170   13.6580    4.6530 O.3   792  HOH792      0.0000
   4480 H1         19.6750   14.2200    4.3200 H     792  HOH792      0.0000
   4481 H2         19.0730   13.4040    5.6070 H     792  HOH792      0.0000
   4482 O          24.2710   16.6080   65.3010 O.3   793  HOH793      0.0000
   4483 H1         24.2140   17.0880   66.1780 H     793  HOH793      0.0000
   4484 H2         25.1630   16.7710   64.8790 H     793  HOH793      0.0000
   4485 O          16.7370   30.0370    4.2640 O.3   794  HOH794      0.0000
   4486 H1         17.4190   30.0800    3.5320 H     794  HOH794      0.0000
   4487 H2         16.5280   29.0840    4.4800 H     794  HOH794      0.0000
   4488 O           8.7100   12.0210   71.2080 O.3   795  HOH795      0.0000
   4489 H1          8.4380   12.9840   71.2390 H     795  HOH795      0.0000
   4490 H2          9.1630   11.8210   70.3400 H     795  HOH795      0.0000
   4491 O          11.5180   16.8110   69.9050 O.3   796  HOH796      0.0000
   4492 H1         10.9110   16.2570   69.3320 H     796  HOH796      0.0000
   4493 H2         12.2420   16.2390   70.2890 H     796  HOH796      0.0000
   4494 O          13.0270   17.2080    7.7150 O.3   797  HOH797      0.0000
   4495 H1         12.2630   16.8050    7.2090 H     797  HOH797      0.0000
   4496 H2         13.6560   16.4900    8.0120 H     797  HOH797      0.0000
   4497 O          10.7920    5.9110   15.1330 O.3   798  HOH798      0.0000
   4498 H1         10.1050    6.6380   15.1830 H     798  HOH798      0.0000
   4499 H2         10.4300    5.1340   14.6210 H     798  HOH798      0.0000
   4500 O          22.3990    9.8480   16.5660 O.3   799  HOH799      0.0000
   4501 H1         21.7450   10.6050   16.5430 H     799  HOH799      0.0000
   4502 H2         22.9770    9.9200   17.3770 H     799  HOH799      0.0000
   4503 O           3.6070    1.9110   61.0340 O.3   800  HOH800      0.0000
   4504 H1          4.1840    1.5960   60.2790 H     800  HOH800      0.0000
   4505 H2          2.7780    2.3390   60.6760 H     800  HOH800      0.0000
   4506 O           3.8590   10.0880   70.5370 O.3   801  HOH801      0.0000
   4507 H1          2.9830   10.2610   70.0840 H     801  HOH801      0.0000
   4508 H2          3.7270   10.0380   71.5270 H     801  HOH801      0.0000
   4509 O          31.9140   25.7750   63.1170 O.3   802  HOH802      0.0000
   4510 H1         31.3520   25.0920   62.6470 H     802  HOH802      0.0000
   4511 H2         32.2910   25.3870   63.9570 H     802  HOH802      0.0000
   4512 O          24.9630   29.2270    1.0080 O.3   803  HOH803      0.0000
   4513 H1         25.9230   28.9440    0.9970 H     803  HOH803      0.0000
   4514 H2         24.5620   29.0420    1.9040 H     803  HOH803      0.0000
   4515 O           6.9740    9.7500   54.6510 O.3   804  HOH804      0.0000
   4516 H1          6.6820    8.8810   55.0530 H     804  HOH804      0.0000
   4517 H2          7.1380    9.6350   53.6720 H     804  HOH804      0.0000
   4518 O          18.2920   15.4570   64.3680 O.3   805  HOH805      0.0000
   4519 H1         18.3900   15.1040   63.4370 H     805  HOH805      0.0000
   4520 H2         19.0270   15.1040   64.9470 H     805  HOH805      0.0000
   4521 O          10.7820    2.8970   15.0400 O.3   806  HOH806      0.0000
   4522 H1         11.0000    3.0430   14.0740 H     806  HOH806      0.0000
   4523 H2         11.4040    2.2210   15.4330 H     806  HOH806      0.0000
   4524 O          11.3270   27.0000   69.8270 O.3   807  HOH807      0.0000
   4525 H1         10.7660   26.2080   69.5830 H     807  HOH807      0.0000
   4526 H2         12.2220   26.6980   70.1530 H     807  HOH807      0.0000
   4527 O           7.1920   30.3100   16.8620 O.3   808  HOH808      0.0000
   4528 H1          6.7590   29.6550   17.4830 H     808  HOH808      0.0000
   4529 H2          7.7800   30.9310   17.3780 H     808  HOH808      0.0000
   4530 O           8.1400   19.4000   59.9010 O.3   809  HOH809      0.0000
   4531 H1          7.2100   19.7730   59.9020 H     809  HOH809      0.0000
   4532 H2          8.3120   18.9150   59.0450 H     809  HOH809      0.0000
   4533 O          12.8140    1.4780   64.2870 O.3   810  HOH810      0.0000
   4534 H1         12.8400    1.0000   65.1670 H     810  HOH810      0.0000
   4535 H2         13.3850    0.9990   63.6210 H     810  HOH810      0.0000
   4536 O           2.9000   16.3960   60.4980 O.3   811  HOH811      0.0000
   4537 H1          3.5160   17.1790   60.4080 H     811  HOH811      0.0000
   4538 H2          3.1470   15.8580   61.3030 H     811  HOH811      0.0000
   4539 O          27.5690    6.0060   11.6420 O.3   812  HOH812      0.0000
   4540 H1         28.5360    5.7530   11.6900 H     812  HOH812      0.0000
   4541 H2         27.3340    6.6070   12.4060 H     812  HOH812      0.0000
   4542 O          20.4710    9.2860    2.7260 O.3   813  HOH813      0.0000
   4543 H1         19.7810    9.8780    3.1450 H     813  HOH813      0.0000
   4544 H2         20.2230    8.3270    2.8550 H     813  HOH813      0.0000
   4545 O          28.9220   13.5260   52.9590 O.3   814  HOH814      0.0000
   4546 H1         28.4600   12.7220   53.3340 H     814  HOH814      0.0000
   4547 H2         28.5040   14.3590   53.3190 H     814  HOH814      0.0000
   4548 O          20.6760   25.1770   64.4590 O.3   815  HOH815      0.0000
   4549 H1         21.5930   25.0260   64.0850 H     815  HOH815      0.0000
   4550 H2         20.6130   24.7860   65.3770 H     815  HOH815      0.0000
   4551 O           3.3180    7.7330   62.3750 O.3   816  HOH816      0.0000
   4552 H1          3.0760    6.8370   62.7500 H     816  HOH816      0.0000
   4553 H2          3.6910    7.6280   61.4540 H     816  HOH816      0.0000
   4554 O          25.6850    9.2260   69.6240 O.3   817  HOH817      0.0000
   4555 H1         26.6800    9.3220   69.6670 H     817  HOH817      0.0000
   4556 H2         25.2700   10.0910   69.3430 H     817  HOH817      0.0000
   4557 O           2.0000   21.0650   20.3570 O.3   818  HOH818      0.0000
   4558 H1          2.3690   21.9890   20.4670 H     818  HOH818      0.0000
   4559 H2          2.5910   20.5310   19.7530 H     818  HOH818      0.0000
   4560 O          21.5710   21.3200   60.0960 O.3   819  HOH819      0.0000
   4561 H1         22.0280   22.0540   60.6000 H     819  HOH819      0.0000
   4562 H2         22.0160   20.4460   60.2860 H     819  HOH819      0.0000
   4563 O          22.0840   24.2820   17.9550 O.3   820  HOH820      0.0000
   4564 H1         22.4280   23.4010   17.6250 H     820  HOH820      0.0000
   4565 H2         21.6500   24.1670   18.8480 H     820  HOH820      0.0000
   4566 O          22.8430   11.7150   63.6030 O.3   821  HOH821      0.0000
   4567 H1         23.3600   11.1710   64.2660 H     821  HOH821      0.0000
   4568 H2         22.8930   11.2890   62.7000 H     821  HOH821      0.0000
   4569 O           7.5740   10.4210   68.9680 O.3   822  HOH822      0.0000
   4570 H1          8.2100   10.0040   69.6200 H     822  HOH822      0.0000
   4571 H2          7.2890   11.3210   69.2980 H     822  HOH822      0.0000
   4572 O          20.8770    9.7050    8.8440 O.3   823  HOH823      0.0000
   4573 H1         20.6480    9.1080    8.0740 H     823  HOH823      0.0000
   4574 H2         20.2170    9.5780    9.5830 H     823  HOH823      0.0000
   4575 O           6.4100    9.3530    3.8710 O.3   824  HOH824      0.0000
   4576 H1          6.3450    9.4180    2.8740 H     824  HOH824      0.0000
   4577 H2          5.8830   10.0880    4.2970 H     824  HOH824      0.0000
   4578 O          11.0370   11.3300    1.4700 O.3   825  HOH825      0.0000
   4579 H1         10.5690   12.1550    1.1480 H     825  HOH825      0.0000
   4580 H2         11.9940   11.3460    1.1810 H     825  HOH825      0.0000
   4581 O          25.2730   17.7710   62.1210 O.3   826  HOH826      0.0000
   4582 H1         25.5280   16.8150   61.9700 H     826  HOH826      0.0000
   4583 H2         24.6250   18.0660   61.4190 H     826  HOH826      0.0000
   4584 O          26.8150   23.6180   67.5040 O.3   827  HOH827      0.0000
   4585 H1         27.5390   24.1260   67.9740 H     827  HOH827      0.0000
   4586 H2         26.5340   22.8330   68.0560 H     827  HOH827      0.0000
   4587 O          29.8680    5.5520    8.9500 O.3   828  HOH828      0.0000
   4588 H1         29.2450    6.2540    8.6020 H     828  HOH828      0.0000
   4589 H2         30.4060    5.9180    9.7080 H     828  HOH828      0.0000
   4590 O           7.8010    5.7320   20.1020 O.3   829  HOH829      0.0000
   4591 H1          8.2810    5.9930   20.9410 H     829  HOH829      0.0000
   4592 H2          8.1140    4.8340   19.7950 H     829  HOH829      0.0000
   4593 O           9.6970   21.2320   67.3060 O.3   830  HOH830      0.0000
   4594 H1          9.4800   22.1810   67.5420 H     830  HOH830      0.0000
   4595 H2         10.6170   21.0040   67.6220 H     830  HOH830      0.0000
   4596 O          16.4010   23.4760   65.1770 O.3   831  HOH831      0.0000
   4597 H1         15.7160   23.5060   64.4470 H     831  HOH831      0.0000
   4598 H2         17.2670   23.1300   64.8180 H     831  HOH831      0.0000
   4599 O          13.8460   16.5390   68.5650 O.3   832  HOH832      0.0000
   4600 H1         14.0030   15.5670   68.3840 H     832  HOH832      0.0000
   4601 H2         12.9380   16.8040   68.2430 H     832  HOH832      0.0000
   4602 O          31.0940   20.2220   14.0770 O.3   833  HOH833      0.0000
   4603 H1         30.2040   20.5790   14.3640 H     833  HOH833      0.0000
   4604 H2         31.1010   20.0770   13.0890 H     833  HOH833      0.0000
   4605 O           1.0160    6.4550   61.3490 O.3   834  HOH834      0.0000
   4606 H1          1.5130    7.3090   61.1910 H     834  HOH834      0.0000
   4607 H2          1.0000    6.2450   62.3260 H     834  HOH834      0.0000
   4608 O          27.8550   19.6630    8.7040 O.3   835  HOH835      0.0000
   4609 H1         28.2950   20.3840    8.1670 H     835  HOH835      0.0000
   4610 H2         27.1080   19.2540    8.1820 H     835  HOH835      0.0000
   4611 O          10.7480   23.3860   61.0520 O.3   836  HOH836      0.0000
   4612 H1         10.1490   24.0970   60.6800 H     836  HOH836      0.0000
   4613 H2         11.0240   23.6240   61.9820 H     836  HOH836      0.0000
   4614 O          24.5330    2.9160   53.1820 O.3   837  HOH837      0.0000
   4615 H1         23.5390    2.8250   53.2530 H     837  HOH837      0.0000
   4616 H2         24.9040    3.2830   54.0340 H     837  HOH837      0.0000
   4617 O          20.3280   28.3320   71.1930 O.3   838  HOH838      0.0000
   4618 H1         21.1280   28.1310   70.6260 H     838  HOH838      0.0000
   4619 H2         20.3670   27.8030   72.0390 H     838  HOH838      0.0000
   4620 O          13.7370   10.0480    3.1430 O.3   839  HOH839      0.0000
   4621 H1         13.8040   11.0230    3.3610 H     839  HOH839      0.0000
   4622 H2         13.9670    9.5010    3.9470 H     839  HOH839      0.0000
   4623 O          18.8510    8.1420   73.1530 O.3   840  HOH840      0.0000
   4624 H1         18.6670    7.2300   73.5240 H     840  HOH840      0.0000
   4625 H2         18.8190    8.8210   73.8850 H     840  HOH840      0.0000
   4626 O          29.3490   20.7670   59.3530 O.3   841  HOH841      0.0000
   4627 H1         30.1430   20.3930   58.8700 H     841  HOH841      0.0000
   4628 H2         29.1320   20.1970   60.1450 H     841  HOH841      0.0000
   4629 O          21.7670   29.5360   10.2820 O.3   842  HOH842      0.0000
   4630 H1         22.4580   28.9110    9.9170 H     842  HOH842      0.0000
   4631 H2         21.5030   29.2520   11.2030 H     842  HOH842      0.0000
   4632 O           3.1720   29.0090   17.6890 O.3   843  HOH843      0.0000
   4633 H1          3.7680   29.2810   16.9320 H     843  HOH843      0.0000
   4634 H2          2.6480   28.1960   17.4360 H     843  HOH843      0.0000
   4635 O           1.9330   10.9810   68.0720 O.3   844  HOH844      0.0000
   4636 H1          2.0220   10.5550   67.1700 H     844  HOH844      0.0000
   4637 H2          1.0080   11.3410   68.1900 H     844  HOH844      0.0000
   4638 O          32.6090   28.6990   24.8110 O.3   845  HOH845      0.0000
   4639 H1         32.1850   29.5300   25.1720 H     845  HOH845      0.0000
   4640 H2         31.9030   28.0370   24.5610 H     845  HOH845      0.0000
   4641 O           6.3040   31.6010   12.8310 O.3   846  HOH846      0.0000
   4642 H1          7.2340   31.7260   12.4830 H     846  HOH846      0.0000
   4643 H2          5.6860   31.3730   12.0790 H     846  HOH846      0.0000
   4644 O          10.6080   18.3410    5.9460 O.3   847  HOH847      0.0000
   4645 H1         11.0380   18.7750    6.7390 H     847  HOH847      0.0000
   4646 H2         11.2940   17.8490    5.4120 H     847  HOH847      0.0000
   4647 O          33.2600    4.5830   68.4250 O.3   848  HOH848      0.0000
   4648 H1         32.5360    5.0890   68.8960 H     848  HOH848      0.0000
   4649 H2         32.8900    3.7410   68.0360 H     848  HOH848      0.0000
   4650 O          29.7790   16.6650   66.9200 O.3   849  HOH849      0.0000
   4651 H1         29.8300   16.1340   67.7670 H     849  HOH849      0.0000
   4652 H2         30.3970   17.4490   66.9710 H     849  HOH849      0.0000
   4653 O          31.6690   31.8580   23.8610 O.3   850  HOH850      0.0000
   4654 H1         32.6630   31.8810   23.9740 H     850  HOH850      0.0000
   4655 H2         31.4170   32.2400   22.9730 H     850  HOH850      0.0000
   4656 O           3.6290   26.8490   57.4440 O.3   851  HOH851      0.0000
   4657 H1          4.2760   27.6120   57.4770 H     851  HOH851      0.0000
   4658 H2          3.9490   26.1580   56.7970 H     851  HOH851      0.0000
   4659 O          16.6950    8.8530   64.5810 O.3   852  HOH852      0.0000
   4660 H1         16.4990    7.8880   64.7600 H     852  HOH852      0.0000
   4661 H2         17.3370    8.9350   63.8190 H     852  HOH852      0.0000
   4662 O          27.6600    9.2840   19.3560 O.3   853  HOH853      0.0000
   4663 H1         27.9100    9.9130   20.0940 H     853  HOH853      0.0000
   4664 H2         26.9390    9.6870   18.7940 H     853  HOH853      0.0000
   4665 O          13.9910   28.7670   10.9330 O.3   854  HOH854      0.0000
   4666 H1         13.7980   29.5920   11.4660 H     854  HOH854      0.0000
   4667 H2         13.9490   28.9730    9.9570 H     854  HOH854      0.0000
   4668 O          13.6070   31.9950   14.2130 O.3   855  HOH855      0.0000
   4669 H1         12.6800   32.2400   13.9250 H     855  HOH855      0.0000
   4670 H2         13.7440   32.2410   15.1720 H     855  HOH855      0.0000
   4671 O           2.1670    5.8810    2.2030 O.3   856  HOH856      0.0000
   4672 H1          1.9250    5.6820    1.2520 H     856  HOH856      0.0000
   4673 H2          3.1090    6.2090    2.2540 H     856  HOH856      0.0000
   4674 O          16.7010   16.7290   70.1880 O.3   857  HOH857      0.0000
   4675 H1         17.2330   16.3020   70.9210 H     857  HOH857      0.0000
   4676 H2         16.8210   17.7210   70.2130 H     857  HOH857      0.0000
   4677 O          22.4420   13.4270   59.1840 O.3   858  HOH858      0.0000
   4678 H1         21.9360   13.4040   60.0470 H     858  HOH858      0.0000
   4679 H2         21.8060   13.5050   58.4170 H     858  HOH858      0.0000
   4680 O          11.7890    7.0810   17.5500 O.3   859  HOH859      0.0000
   4681 H1         12.4260    7.4190   16.8550 H     859  HOH859      0.0000
   4682 H2         11.5480    6.1300   17.3580 H     859  HOH859      0.0000
   4683 O          27.5750   10.5820   58.5100 O.3   860  HOH860      0.0000
   4684 H1         28.3940   10.9810   58.0940 H     860  HOH860      0.0000
   4685 H2         26.8150   11.2280   58.4550 H     860  HOH860      0.0000
   4686 O          19.4120   16.1740   19.6220 O.3   861  HOH861      0.0000
   4687 H1         18.4490   16.4450   19.6480 H     861  HOH861      0.0000
   4688 H2         19.7360   16.1570   18.6770 H     861  HOH861      0.0000
   4689 O          10.1980   17.4820   11.1670 O.3   862  HOH862      0.0000
   4690 H1          9.8420   17.9720   11.9640 H     862  HOH862      0.0000
   4691 H2          9.7260   17.7860   10.3400 H     862  HOH862      0.0000
   4692 O          12.1080   17.0580    1.0180 O.3   863  HOH863      0.0000
   4693 H1         11.1360   16.8220    1.0000 H     863  HOH863      0.0000
   4694 H2         12.3410   17.4800    1.8930 H     863  HOH863      0.0000
   4695 O          15.9670   28.5420   17.7610 O.3   864  HOH864      0.0000
   4696 H1         15.7040   27.6740   18.1840 H     864  HOH864      0.0000
   4697 H2         15.1760   28.9580   17.3130 H     864  HOH864      0.0000
   4698 O           1.8280   17.9780   63.7620 O.3   865  HOH865      0.0000
   4699 H1          1.0870   18.2770   63.1590 H     865  HOH865      0.0000
   4700 H2          2.4040   17.3110   63.2900 H     865  HOH865      0.0000
   4701 O           9.6260    8.9830   60.3290 O.3   866  HOH866      0.0000
   4702 H1          8.9280    8.3150   60.5910 H     866  HOH866      0.0000
   4703 H2          9.3730    9.8900   60.6630 H     866  HOH866      0.0000
   4704 O          16.7770   16.9380   67.8800 O.3   867  HOH867      0.0000
   4705 H1         15.8820   17.2690   68.1800 H     867  HOH867      0.0000
   4706 H2         17.2220   17.6260   67.3070 H     867  HOH867      0.0000
   4707 O           1.5540   17.8270   16.6700 O.3   868  HOH868      0.0000
   4708 H1          1.0020   18.6580   16.7590 H     868  HOH868      0.0000
   4709 H2          1.0000   17.0900   16.2830 H     868  HOH868      0.0000
   4710 O          23.1400    2.1330   10.1720 O.3   869  HOH869      0.0000
   4711 H1         24.1220    2.3030   10.2650 H     869  HOH869      0.0000
   4712 H2         22.9120    1.2360   10.5480 H     869  HOH869      0.0000
   4713 O           1.1530   16.3770   22.2200 O.3   870  HOH870      0.0000
   4714 H1          1.0140   15.7090   22.9530 H     870  HOH870      0.0000
   4715 H2          1.0160   17.3020   22.5710 H     870  HOH870      0.0000
   4716 O           2.4210    8.9710   18.7780 O.3   871  HOH871      0.0000
   4717 H1          2.6000    9.9350   18.9830 H     871  HOH871      0.0000
   4718 H2          2.6790    8.7690   17.8350 H     871  HOH871      0.0000
   4719 O          25.9030   14.2860    1.2520 O.3   872  HOH872      0.0000
   4720 H1         25.2270   14.9700    0.9760 H     872  HOH872      0.0000
   4721 H2         26.6130   14.7130    1.8110 H     872  HOH872      0.0000
   4722 O          20.6260   16.3030   10.1970 O.3   873  HOH873      0.0000
   4723 H1         19.7840   16.7020   10.5650 H     873  HOH873      0.0000
   4724 H2         20.4580   15.9360    9.2830 H     873  HOH873      0.0000
   4725 O          30.7900   18.8050   16.8940 O.3   874  HOH874      0.0000
   4726 H1         31.1440   19.6530   16.4970 H     874  HOH874      0.0000
   4727 H2         30.8030   18.8630   17.8910 H     874  HOH874      0.0000
   4728 O           5.8160   22.9550   19.1610 O.3   875  HOH875      0.0000
   4729 H1          4.8630   23.2620   19.1820 H     875  HOH875      0.0000
   4730 H2          6.2190   23.1520   18.2680 H     875  HOH875      0.0000
   4731 O          31.3570    5.9540   54.4920 O.3   876  HOH876      0.0000
   4732 H1         32.1590    5.7670   53.9230 H     876  HOH876      0.0000
   4733 H2         30.5360    5.9930   53.9230 H     876  HOH876      0.0000
   4734 O           5.0400   17.4830    2.7770 O.3   877  HOH877      0.0000
   4735 H1          5.1820   16.9750    3.6280 H     877  HOH877      0.0000
   4736 H2          4.1120   17.8510    2.7490 H     877  HOH877      0.0000
   4737 O           6.8490   31.6900   58.8360 O.3   878  HOH878      0.0000
   4738 H1          6.6230   30.8760   58.2980 H     878  HOH878      0.0000
   4739 H2          7.5300   32.2400   58.3540 H     878  HOH878      0.0000
   4740 O          12.6710   31.3670   73.2470 O.3   879  HOH879      0.0000
   4741 H1         12.4040   30.7640   74.0010 H     879  HOH879      0.0000
   4742 H2         12.1910   32.2410   73.3220 H     879  HOH879      0.0000
   4743 O          32.7480   22.1670    2.1010 O.3   880  HOH880      0.0000
   4744 H1         33.1690   21.2600    2.1540 H     880  HOH880      0.0000
   4745 H2         32.1590   22.2230    1.2960 H     880  HOH880      0.0000
   4746 O          21.7870   18.2310   61.7390 O.3   881  HOH881      0.0000
   4747 H1         21.5240   17.2670   61.6780 H     881  HOH881      0.0000
   4748 H2         22.4850   18.4380   61.0550 H     881  HOH881      0.0000
   4749 O          11.2560   22.5650   72.4260 O.3   882  HOH882      0.0000
   4750 H1         11.1660   21.7540   71.8460 H     882  HOH882      0.0000
   4751 H2         12.1320   22.5460   72.9060 H     882  HOH882      0.0000
   4752 O          22.8560   12.1790   14.5150 O.3   883  HOH883      0.0000
   4753 H1         21.9560   12.1180   14.9490 H     883  HOH883      0.0000
   4754 H2         22.7530   12.3110   13.5300 H     883  HOH883      0.0000
   4755 O          28.4890    2.2880   64.9370 O.3   884  HOH884      0.0000
   4756 H1         28.5150    3.1890   65.3720 H     884  HOH884      0.0000
   4757 H2         27.5660    2.0940   64.6080 H     884  HOH884      0.0000
   4758 O          27.3580   29.7340   59.2490 O.3   885  HOH885      0.0000
   4759 H1         26.9490   30.4850   58.7270 H     885  HOH885      0.0000
   4760 H2         26.6650   29.3020   59.8250 H     885  HOH885      0.0000
   4761 O          24.6940   30.0040   21.4420 O.3   886  HOH886      0.0000
   4762 H1         24.7560   30.9980   21.5380 H     886  HOH886      0.0000
   4763 H2         25.3840   29.6800   20.7960 H     886  HOH886      0.0000
   4764 O           7.6220   29.7520    8.3940 O.3   887  HOH887      0.0000
   4765 H1          8.2320   30.1510    7.7080 H     887  HOH887      0.0000
   4766 H2          7.4010   28.8090    8.1480 H     887  HOH887      0.0000
   4767 O           3.4380   12.3420   53.1490 O.3   888  HOH888      0.0000
   4768 H1          2.5360   12.0320   53.4540 H     888  HOH888      0.0000
   4769 H2          3.7900   11.7280   52.4440 H     888  HOH888      0.0000
   4770 O          14.0540   11.5720   61.9810 O.3   889  HOH889      0.0000
   4771 H1         14.2120   12.2020   62.7430 H     889  HOH889      0.0000
   4772 H2         14.7410   10.8460   61.9900 H     889  HOH889      0.0000
   4773 O          23.0840   32.0430   70.8920 O.3   890  HOH890      0.0000
   4774 H1         22.1230   32.2580   71.0770 H     890  HOH890      0.0000
   4775 H2         23.1850   31.7130   69.9540 H     890  HOH890      0.0000
   4776 O          23.7540   24.1720   70.3130 O.3   891  HOH891      0.0000
   4777 H1         23.4330   23.3620   70.8070 H     891  HOH891      0.0000
   4778 H2         23.3310   24.9930   70.6940 H     891  HOH891      0.0000
   4779 O          27.6480    8.1440    8.1880 O.3   892  HOH892      0.0000
   4780 H1         27.6450    7.6860    9.0780 H     892  HOH892      0.0000
   4781 H2         27.7840    7.4730    7.4600 H     892  HOH892      0.0000
   4782 O          15.6770   16.6830    6.9620 O.3   893  HOH893      0.0000
   4783 H1         16.5030   17.2400    6.8640 H     893  HOH893      0.0000
   4784 H2         15.8980   15.7180    6.8230 H     893  HOH893      0.0000
   4785 O           9.2140   29.6060   61.6320 O.3   894  HOH894      0.0000
   4786 H1          9.7890   30.4000   61.8370 H     894  HOH894      0.0000
   4787 H2          8.4880   29.5240   62.3140 H     894  HOH894      0.0000
   4788 O          13.6740   24.9440   53.6680 O.3   895  HOH895      0.0000
   4789 H1         14.3760   24.9090   54.3810 H     895  HOH895      0.0000
   4790 H2         13.0230   24.1970   53.7920 H     895  HOH895      0.0000
   4791 O          11.6260   30.7750   71.4050 O.3   896  HOH896      0.0000
   4792 H1         11.2390   30.3280   70.5970 H     896  HOH896      0.0000
   4793 H2         11.7820   31.7440   71.2170 H     896  HOH896      0.0000
   4794 O          10.2350   15.9780   65.9410 O.3   897  HOH897      0.0000
   4795 H1         10.5930   15.0580   65.7740 H     897  HOH897      0.0000
   4796 H2          9.2720   16.0230   65.6800 H     897  HOH897      0.0000
   4797 O          28.7120   21.6350    3.1170 O.3   898  HOH898      0.0000
   4798 H1         28.2230   22.2220    3.7640 H     898  HOH898      0.0000
   4799 H2         29.6670   21.5390    3.3980 H     898  HOH898      0.0000
   4800 O           1.8140   20.3960   66.2020 O.3   899  HOH899      0.0000
   4801 H1          0.9950   20.0420   65.7470 H     899  HOH899      0.0000
   4802 H2          1.5540   21.0310   66.9290 H     899  HOH899      0.0000
   4803 O          13.5370    1.7090   20.3140 O.3   900  HOH900      0.0000
   4804 H1         13.7570    2.0250   19.3900 H     900  HOH900      0.0000
   4805 H2         14.3700    1.6550   20.8640 H     900  HOH900      0.0000
   4806 O          10.1910   31.2690    8.5780 O.3   901  HOH901      0.0000
   4807 H1          9.5770   31.8600    8.0540 H     901  HOH901      0.0000
   4808 H2         10.3880   30.4370    8.0610 H     901  HOH901      0.0000
   4809 O          30.8280   30.9210   53.5130 O.3   902  HOH902      0.0000
   4810 H1         29.9980   31.4810   53.5340 H     902  HOH902      0.0000
   4811 H2         30.9970   30.5960   52.5830 H     902  HOH902      0.0000
   4812 O          14.2140    2.4390    8.5820 O.3   903  HOH903      0.0000
   4813 H1         15.0080    2.5740    9.1760 H     903  HOH903      0.0000
   4814 H2         14.3910    2.8320    7.6800 H     903  HOH903      0.0000
   4815 O          19.5020   26.0630    4.0610 O.3   904  HOH904      0.0000
   4816 H1         19.4660   26.7910    4.7460 H     904  HOH904      0.0000
   4817 H2         18.9470   25.2870    4.3570 H     904  HOH904      0.0000
   4818 O          19.8490   25.3730   68.3970 O.3   905  HOH905      0.0000
   4819 H1         19.1870   24.8040   68.8850 H     905  HOH905      0.0000
   4820 H2         19.9380   25.0590   67.4520 H     905  HOH905      0.0000
   4821 O          10.1350   27.6430    6.6940 O.3   906  HOH906      0.0000
   4822 H1          9.7840   27.9770    5.8180 H     906  HOH906      0.0000
   4823 H2         10.4970   28.4050    7.2290 H     906  HOH906      0.0000
   4824 O           3.5110   19.6790   61.2500 O.3   907  HOH907      0.0000
   4825 H1          4.0850   18.9370   61.6000 H     907  HOH907      0.0000
   4826 H2          2.5470   19.4610   61.3940 H     907  HOH907      0.0000
   4827 O          31.1150   14.0100    5.6310 O.3   908  HOH908      0.0000
   4828 H1         30.4460   13.3730    6.0160 H     908  HOH908      0.0000
   4829 H2         31.1550   14.8400    6.1860 H     908  HOH908      0.0000
   4830 O          28.2130   17.1380    7.8570 O.3   909  HOH909      0.0000
   4831 H1         27.3000   16.7860    8.0680 H     909  HOH909      0.0000
   4832 H2         28.9100   16.5320    8.2390 H     909  HOH909      0.0000
   4833 O          30.9610   12.9590    1.3800 O.3   910  HOH910      0.0000
   4834 H1         30.4650   12.0900    1.3680 H     910  HOH910      0.0000
   4835 H2         30.3700   13.6860    1.7270 H     910  HOH910      0.0000
   4836 O          16.8770    8.9040   72.2950 O.3   911  HOH911      0.0000
   4837 H1         17.5900    9.5580   72.0380 H     911  HOH911      0.0000
   4838 H2         16.2050    8.8250   71.5600 H     911  HOH911      0.0000
   4839 O          21.2070   18.1350   64.5810 O.3   912  HOH912      0.0000
   4840 H1         21.3150   18.7830   63.8250 H     912  HOH912      0.0000
   4841 H2         21.8780   17.3990   64.4980 H     912  HOH912      0.0000
   4842 O          13.3740   25.7240   67.5600 O.3   913  HOH913      0.0000
   4843 H1         13.0410   25.3020   66.7150 H     913  HOH913      0.0000
   4844 H2         12.6760   25.6600   68.2720 H     913  HOH913      0.0000
   4845 O          23.4760    5.3360   54.6120 O.3   914  HOH914      0.0000
   4846 H1         23.5540    4.9830   53.6780 H     914  HOH914      0.0000
   4847 H2         24.2950    5.8560   54.8500 H     914  HOH914      0.0000
   4848 O          22.9300   17.0720   71.8810 O.3   915  HOH915      0.0000
   4849 H1         23.0510   16.1890   71.4240 H     915  HOH915      0.0000
   4850 H2         23.8150   17.5190   72.0010 H     915  HOH915      0.0000
   4851 O          17.0800   23.8660   55.4150 O.3   916  HOH916      0.0000
   4852 H1         17.8490   23.4380   54.9390 H     916  HOH916      0.0000
   4853 H2         16.6310   24.5260   54.8140 H     916  HOH916      0.0000
   4854 O           7.3370   15.5640   21.6440 O.3   917  HOH917      0.0000
   4855 H1          7.4450   16.4170   21.1300 H     917  HOH917      0.0000
   4856 H2          8.1820   15.3510   22.1330 H     917  HOH917      0.0000
   4857 O          15.3240   25.1640   73.9780 O.3   918  HOH918      0.0000
   4858 H1         14.5310   24.9760   73.3970 H     918  HOH918      0.0000
   4859 H2         16.1680   25.0140   73.4650 H     918  HOH918      0.0000
   4860 O          29.0260   22.0990    6.5830 O.3   919  HOH919      0.0000
   4861 H1         28.1060   21.7320    6.4390 H     919  HOH919      0.0000
   4862 H2         29.0160   23.0940    6.4820 H     919  HOH919      0.0000
   4863 O          18.8620    2.2280    1.0190 O.3   920  HOH920      0.0000
   4864 H1         19.2810    1.3200    1.0680 H     920  HOH920      0.0000
   4865 H2         18.1510    2.3140    1.7160 H     920  HOH920      0.0000
   4866 O          24.2170   29.5060   66.1520 O.3   921  HOH921      0.0000
   4867 H1         25.2180   29.5160   66.1810 H     921  HOH921      0.0000
   4868 H2         23.8620   30.4280   66.3000 H     921  HOH921      0.0000
   4869 O          22.1360   26.9880    8.0740 O.3   922  HOH922      0.0000
   4870 H1         21.3280   26.7980    7.5150 H     922  HOH922      0.0000
   4871 H2         22.8640   26.3390    7.8530 H     922  HOH922      0.0000
   4872 O          18.5450   28.7620   12.2940 O.3   923  HOH923      0.0000
   4873 H1         18.2870   27.9090   12.7510 H     923  HOH923      0.0000
   4874 H2         19.2310   29.2450   12.8360 H     923  HOH923      0.0000
   4875 O          26.8730   17.1600   13.9810 O.3   924  HOH924      0.0000
   4876 H1         27.0580   16.4260   14.6350 H     924  HOH924      0.0000
   4877 H2         27.5240   17.1160   13.2240 H     924  HOH924      0.0000
   4878 O          19.1450   28.1460   19.0690 O.3   925  HOH925      0.0000
   4879 H1         19.8720   27.5980   18.6530 H     925  HOH925      0.0000
   4880 H2         18.6390   27.5960   19.7330 H     925  HOH925      0.0000
   4881 O          28.2910    7.7150   63.0450 O.3   926  HOH926      0.0000
   4882 H1         29.2870    7.6800   62.9560 H     926  HOH926      0.0000
   4883 H2         27.9150    6.7890   63.0500 H     926  HOH926      0.0000
   4884 O          23.4540   13.3190    7.4620 O.3   927  HOH927      0.0000
   4885 H1         23.6100   12.4770    6.9430 H     927  HOH927      0.0000
   4886 H2         23.7230   14.1120    6.9170 H     927  HOH927      0.0000
   4887 O          29.8590   26.5530   61.3440 O.3   928  HOH928      0.0000
   4888 H1         29.9980   25.9360   60.5670 H     928  HOH928      0.0000
   4889 H2         29.0780   27.1510   61.1690 H     928  HOH928      0.0000
   4890 O           4.9060    6.0090   52.2930 O.3   929  HOH929      0.0000
   4891 H1          4.4740    5.7850   51.4180 H     929  HOH929      0.0000
   4892 H2          5.7080    6.5850   52.1400 H     929  HOH929      0.0000
   4893 O          32.6920    9.6330    5.6570 O.3   930  HOH930      0.0000
   4894 H1         33.2640    9.2540    6.3860 H     930  HOH930      0.0000
   4895 H2         33.2640   10.0820    4.9720 H     930  HOH930      0.0000
   4896 O           2.1680   20.3690   54.8370 O.3   931  HOH931      0.0000
   4897 H1          2.8030   19.7220   55.2620 H     931  HOH931      0.0000
   4898 H2          1.2260   20.1080   55.0430 H     931  HOH931      0.0000
   4899 O           8.9670   13.3910   11.1260 O.3   932  HOH932      0.0000
   4900 H1          8.1190   13.9230   11.1580 H     932  HOH932      0.0000
   4901 H2          9.2650   13.1670   12.0530 H     932  HOH932      0.0000
   4902 O          15.5710    1.0730   61.2880 O.3   933  HOH933      0.0000
   4903 H1         14.7140    1.0240   61.8020 H     933  HOH933      0.0000
   4904 H2         16.3490    1.0290   61.9140 H     933  HOH933      0.0000
   4905 O          21.4510   17.9610   58.5600 O.3   934  HOH934      0.0000
   4906 H1         22.3470   18.4050   58.6150 H     934  HOH934      0.0000
   4907 H2         21.0200   17.9480   59.4610 H     934  HOH934      0.0000
   4908 O          18.4090   13.4600   69.9070 O.3   935  HOH935      0.0000
   4909 H1         17.5350   13.6970   70.3340 H     935  HOH935      0.0000
   4910 H2         18.2530   12.8780   69.1100 H     935  HOH935      0.0000
   4911 O           3.7130    3.9300    7.4150 O.3   936  HOH936      0.0000
   4912 H1          3.1790    3.1840    7.8160 H     936  HOH936      0.0000
   4913 H2          4.6010    3.9950    7.8680 H     936  HOH936      0.0000
   4914 O          13.8530    1.9540   73.2920 O.3   937  HOH937      0.0000
   4915 H1         14.7070    1.5080   73.5650 H     937  HOH937      0.0000
   4916 H2         13.0710    1.4340   73.6340 H     937  HOH937      0.0000
   4917 O          18.2910   23.5030   51.7960 O.3   938  HOH938      0.0000
   4918 H1         18.7750   23.7590   52.6340 H     938  HOH938      0.0000
   4919 H2         17.9990   22.5490   51.8480 H     938  HOH938      0.0000
   4920 O           9.7070   25.2910   13.8940 O.3   939  HOH939      0.0000
   4921 H1         10.0730   24.7240   13.1540 H     939  HOH939      0.0000
   4922 H2         10.2010   25.1050   14.7420 H     939  HOH939      0.0000
   4923 O          24.8870   16.7570   51.4600 O.3   940  HOH940      0.0000
   4924 H1         24.9230   17.7560   51.5190 H     940  HOH940      0.0000
   4925 H2         25.8040   16.3750   51.5730 H     940  HOH940      0.0000
   4926 O           3.4370   21.3750   10.2700 O.3   941  HOH941      0.0000
   4927 H1          2.6700   21.6960    9.7120 H     941  HOH941      0.0000
   4928 H2          3.6120   22.0200   11.0130 H     941  HOH941      0.0000
   4929 O          19.4640   24.1190    1.7950 O.3   942  HOH942      0.0000
   4930 H1         20.2500   24.6720    2.0740 H     942  HOH942      0.0000
   4931 H2         18.7070   24.2550    2.4330 H     942  HOH942      0.0000
   4932 O          14.5000   18.9020   66.6970 O.3   943  HOH943      0.0000
   4933 H1         15.3460   18.4520   66.4050 H     943  HOH943      0.0000
   4934 H2         14.1690   18.4890   67.5450 H     943  HOH943      0.0000
   4935 O          17.5300   19.4540   65.4930 O.3   944  HOH944      0.0000
   4936 H1         17.2690   18.5080   65.2940 H     944  HOH944      0.0000
   4937 H2         17.8980   19.5190   66.4190 H     944  HOH944      0.0000
   4938 O           6.8760    6.2890   11.5940 O.3   945  HOH945      0.0000
   4939 H1          6.4950    6.8720   10.8750 H     945  HOH945      0.0000
   4940 H2          7.3720    6.8450   12.2590 H     945  HOH945      0.0000
   4941 O           9.3950    4.4580   10.2340 O.3   946  HOH946      0.0000
   4942 H1          9.4920    3.9800    9.3610 H     946  HOH946      0.0000
   4943 H2          9.1590    3.8080   10.9560 H     946  HOH946      0.0000
   4944 O          20.7780    8.5580   57.4750 O.3   947  HOH947      0.0000
   4945 H1         20.3320    8.9040   56.6480 H     947  HOH947      0.0000
   4946 H2         20.2550    7.7950   57.8510 H     947  HOH947      0.0000
   4947 O           8.8600   17.3090   71.0870 O.3   948  HOH948      0.0000
   4948 H1          9.0030   16.8410   71.9600 H     948  HOH948      0.0000
   4949 H2          9.7160   17.7160   70.7730 H     948  HOH948      0.0000
   4950 O          32.6240    3.6260   55.5240 O.3   949  HOH949      0.0000
   4951 H1         32.2870    2.9750   54.8420 H     949  HOH949      0.0000
   4952 H2         33.2600    4.2690   55.0980 H     949  HOH949      0.0000
   4953 O           6.9680   27.1280    5.4730 O.3   950  HOH950      0.0000
   4954 H1          7.5690   27.2250    6.2680 H     950  HOH950      0.0000
   4955 H2          7.3710   27.5870    4.6820 H     950  HOH950      0.0000
   4956 O          11.8160   17.9800    9.6080 O.3   951  HOH951      0.0000
   4957 H1         11.6790   18.8360   10.1090 H     951  HOH951      0.0000
   4958 H2         11.2610   17.9780    8.7770 H     951  HOH951      0.0000
   4959 O          32.0290   12.7470   20.1680 O.3   952  HOH952      0.0000
   4960 H1         33.0280   12.8010   20.1980 H     952  HOH952      0.0000
   4961 H2         31.6370   13.2340   20.9480 H     952  HOH952      0.0000
   4962 O          21.3750    9.9860   18.8820 O.3   953  HOH953      0.0000
   4963 H1         21.1120    9.1760   18.3540 H     953  HOH953      0.0000
   4964 H2         20.6600   10.2080   19.5440 H     953  HOH953      0.0000
   4965 O           9.1540   12.0370   73.4640 O.3   954  HOH954      0.0000
   4966 H1          9.4090   11.2300   73.9990 H     954  HOH954      0.0000
   4967 H2          9.4130   12.8680   73.9540 H     954  HOH954      0.0000
   4968 O          26.3190   25.3060    8.3230 O.3   955  HOH955      0.0000
   4969 H1         25.4130   25.5710    8.6560 H     955  HOH955      0.0000
   4970 H2         26.4040   25.5280    7.3520 H     955  HOH955      0.0000
   4971 O          16.3580    6.7850   58.5620 O.3   956  HOH956      0.0000
   4972 H1         16.2320    5.8910   58.9950 H     956  HOH956      0.0000
   4973 H2         15.5320    7.0430   58.0630 H     956  HOH956      0.0000
   4974 O           8.2660   25.1810   18.1290 O.3   957  HOH957      0.0000
   4975 H1          8.8060   24.4330   18.5180 H     957  HOH957      0.0000
   4976 H2          7.3090   25.0880   18.4020 H     957  HOH957      0.0000
   4977 O          10.6420    1.0000   65.2640 O.3   958  HOH958      0.0000
   4978 H1          9.9280    1.0000   64.5630 H     958  HOH958      0.0000
   4979 H2         10.2280    1.0460   66.1730 H     958  HOH958      0.0000
   4980 O          14.0860    9.0060    9.9110 O.3   959  HOH959      0.0000
   4981 H1         13.8580    9.9400   10.1890 H     959  HOH959      0.0000
   4982 H2         14.1080    8.9420    8.9140 H     959  HOH959      0.0000
   4983 O           3.0960   12.8660   16.4440 O.3   960  HOH960      0.0000
   4984 H1          2.8620   12.1140   17.0610 H     960  HOH960      0.0000
   4985 H2          2.5520   12.8030   15.6080 H     960  HOH960      0.0000
   4986 O          20.1910    1.0040   65.4590 O.3   961  HOH961      0.0000
   4987 H1         20.9900    1.0100   66.0620 H     961  HOH961      0.0000
   4988 H2         20.4830    1.0410   64.5040 H     961  HOH961      0.0000
   4989 O          29.4800   21.9120   57.4250 O.3   962  HOH962      0.0000
   4990 H1         29.7670   22.6380   56.7980 H     962  HOH962      0.0000
   4991 H2         29.2050   21.1020   56.9080 H     962  HOH962      0.0000
   4992 O           9.6510    2.0210    5.3490 O.3   963  HOH963      0.0000
   4993 H1          8.7250    1.8830    5.7050 H     963  HOH963      0.0000
   4994 H2          9.6880    1.7660    4.3840 H     963  HOH963      0.0000
   4995 O          29.2450   10.7090   21.8070 O.3   964  HOH964      0.0000
   4996 H1         29.0060   11.6110   21.4430 H     964  HOH964      0.0000
   4997 H2         30.0430   10.7830   22.4050 H     964  HOH964      0.0000
   4998 O          12.7220   24.2300    1.7810 O.3   965  HOH965      0.0000
   4999 H1         13.7040   24.2020    1.5890 H     965  HOH965      0.0000
   5000 H2         12.2250   24.5410    0.9720 H     965  HOH965      0.0000
   5001 O          13.5040   11.1270   17.6730 O.3   966  HOH966      0.0000
   5002 H1         14.3510   10.7000   17.9920 H     966  HOH966      0.0000
   5003 H2         13.4230   12.0490   18.0490 H     966  HOH966      0.0000
   5004 O          29.7940   27.7100   56.4560 O.3   967  HOH967      0.0000
   5005 H1         28.8630   27.7540   56.8210 H     967  HOH967      0.0000
   5006 H2         30.3010   28.5330   56.7100 H     967  HOH967      0.0000
   5007 O          24.6020    5.5700   66.6360 O.3   968  HOH968      0.0000
   5008 H1         25.0340    4.8280   66.1200 H     968  HOH968      0.0000
   5009 H2         24.3890    6.3310   66.0240 H     968  HOH968      0.0000
   5010 O          28.4890   11.8820   19.3030 O.3   969  HOH969      0.0000
   5011 H1         29.1370   11.4200   18.6950 H     969  HOH969      0.0000
   5012 H2         27.5610   11.7920   18.9440 H     969  HOH969      0.0000
   5013 O          31.1150   16.8180   18.7040 O.3   970  HOH970      0.0000
   5014 H1         31.4640   16.7300   17.7700 H     970  HOH970      0.0000
   5015 H2         31.8380   17.1510   19.3090 H     970  HOH970      0.0000
   5016 O          24.1120    5.3070   10.6630 O.3   971  HOH971      0.0000
   5017 H1         23.4740    5.0420   11.3870 H     971  HOH971      0.0000
   5018 H2         24.4720    4.4920   10.2100 H     971  HOH971      0.0000
   5019 O          29.8090    3.3260   57.7520 O.3   972  HOH972      0.0000
   5020 H1         29.1930    3.7340   57.0770 H     972  HOH972      0.0000
   5021 H2         30.0160    2.3810   57.4980 H     972  HOH972      0.0000
   5022 O          10.1540   26.1030   66.3790 O.3   973  HOH973      0.0000
   5023 H1         10.8490   25.4200   66.6090 H     973  HOH973      0.0000
   5024 H2         10.3550   26.5080   65.4880 H     973  HOH973      0.0000
   5025 O          21.9090   17.0670    1.0130 O.3   974  HOH974      0.0000
   5026 H1         22.4650   17.4930    1.7280 H     974  HOH974      0.0000
   5027 H2         22.0460   16.0770    1.0190 H     974  HOH974      0.0000
   5028 O          12.0880   24.2200   58.6520 O.3   975  HOH975      0.0000
   5029 H1         12.3480   24.9200   59.3180 H     975  HOH975      0.0000
   5030 H2         11.8070   23.3860   59.1250 H     975  HOH975      0.0000
   5031 O          13.6790   21.7230   16.2940 O.3   976  HOH976      0.0000
   5032 H1         12.7190   21.9910   16.2040 H     976  HOH976      0.0000
   5033 H2         14.0500   21.4750   15.3990 H     976  HOH976      0.0000
   5034 O          22.6550   10.1830    5.5330 O.3   977  HOH977      0.0000
   5035 H1         22.8830    9.4370    4.9050 H     977  HOH977      0.0000
   5036 H2         23.2840   10.9470    5.3970 H     977  HOH977      0.0000
   5037 O          25.7560   11.4860   12.5510 O.3   978  HOH978      0.0000
   5038 H1         26.2400   11.5270   13.4260 H     978  HOH978      0.0000
   5039 H2         26.3580   11.1160   11.8440 H     978  HOH978      0.0000
   5040 O           6.3800   15.4660   57.2390 O.3   979  HOH979      0.0000
   5041 H1          6.3360   14.4690   57.1660 H     979  HOH979      0.0000
   5042 H2          7.2460   15.7980   56.8660 H     979  HOH979      0.0000
   5043 O          13.9380   22.2410   55.6550 O.3   980  HOH980      0.0000
   5044 H1         14.2170   22.6170   54.7700 H     980  HOH980      0.0000
   5045 H2         13.3090   21.4770   55.5190 H     980  HOH980      0.0000
   5046 O          26.4400    8.0160   56.5680 O.3   981  HOH981      0.0000
   5047 H1         25.5260    7.8590   56.9450 H     981  HOH981      0.0000
   5048 H2         27.0930    7.3820   56.9800 H     981  HOH981      0.0000
   5049 O           7.7350   13.8770   55.4840 O.3   982  HOH982      0.0000
   5050 H1          7.6080   13.6860   54.5100 H     982  HOH982      0.0000
   5051 H2          7.9400   13.0310   55.9740 H     982  HOH982      0.0000
   5052 O          15.6540   22.2550   60.3910 O.3   983  HOH983      0.0000
   5053 H1         15.6170   23.2420   60.2280 H     983  HOH983      0.0000
   5054 H2         14.8890   21.9750   60.9700 H     983  HOH983      0.0000
   5055 O           3.2570    4.1720   58.1440 O.3   984  HOH984      0.0000
   5056 H1          2.4500    4.3670   58.7040 H     984  HOH984      0.0000
   5057 H2          3.4830    3.2000   58.1970 H     984  HOH984      0.0000
   5058 O          14.1490   18.0020   62.1050 O.3   985  HOH985      0.0000
   5059 H1         13.3950   18.6380   61.9310 H     985  HOH985      0.0000
   5060 H2         14.7210   17.9190   61.2910 H     985  HOH985      0.0000
   5061 O          23.9000   22.2740   56.6930 O.3   986  HOH986      0.0000
   5062 H1         24.7800   22.6540   56.4060 H     986  HOH986      0.0000
   5063 H2         23.1930   22.9800   56.6520 H     986  HOH986      0.0000
   5064 O          15.9260    1.2930   65.0400 O.3   987  HOH987      0.0000
   5065 H1         16.7650    1.0730   65.5400 H     987  HOH987      0.0000
   5066 H2         16.0090    1.0000   64.0880 H     987  HOH987      0.0000
   5067 O          10.6100   29.4080   64.3180 O.3   988  HOH988      0.0000
   5068 H1         10.2150   28.8980   65.0850 H     988  HOH988      0.0000
   5069 H2         10.3170   29.0040   63.4530 H     988  HOH988      0.0000
   5070 O           1.5660    9.1260   63.1120 O.3   989  HOH989      0.0000
   5071 H1          1.2280    8.8040   63.9970 H     989  HOH989      0.0000
   5072 H2          2.3300    9.7550   63.2470 H     989  HOH989      0.0000
   5073 O          16.8450   16.3290   61.6740 O.3   990  HOH990      0.0000
   5074 H1         17.4520   17.0210   62.0690 H     990  HOH990      0.0000
   5075 H2         16.5820   16.5950   60.7480 H     990  HOH990      0.0000
   5076 O          24.1350   28.2650   67.9650 O.3   991  HOH991      0.0000
   5077 H1         25.0800   28.0950   68.2470 H     991  HOH991      0.0000
   5078 H2         23.5920   28.5590   68.7510 H     991  HOH991      0.0000
   5079 O           9.2270   24.0160   65.5690 O.3   992  HOH992      0.0000
   5080 H1          9.0870   24.1020   66.5570 H     992  HOH992      0.0000
   5081 H2          9.0690   23.0710   65.2830 H     992  HOH992      0.0000
   5082 O           5.6320   22.2840   72.0590 O.3   993  HOH993      0.0000
   5083 H1          4.8470   22.4150   72.6670 H     993  HOH993      0.0000
   5084 H2          5.3260   22.2570   71.1080 H     993  HOH993      0.0000
   5085 O          27.0650   17.4450    5.3510 O.3   994  HOH994      0.0000
   5086 H1         27.4100   18.0000    4.5930 H     994  HOH994      0.0000
   5087 H2         27.7850   16.8370    5.6850 H     994  HOH994      0.0000
   5088 O           3.4010   26.1390   17.2380 O.3   995  HOH995      0.0000
   5089 H1          2.6780   25.9030   16.5860 H     995  HOH995      0.0000
   5090 H2          3.0740   26.0050   18.1730 H     995  HOH995      0.0000
   5091 O          28.3720   15.1960   56.3390 O.3   996  HOH996      0.0000
   5092 H1         28.1670   16.1380   56.0680 H     996  HOH996      0.0000
   5093 H2         28.4260   14.6120   55.5300 H     996  HOH996      0.0000
   5094 O           1.7390   13.7660   68.9500 O.3   997  HOH997      0.0000
   5095 H1          1.3770   13.5060   68.0530 H     997  HOH997      0.0000
   5096 H2          0.9980   13.8010   69.6200 H     997  HOH997      0.0000
   5097 O           9.9030   11.0130   57.9930 O.3   998  HOH998      0.0000
   5098 H1         10.1100   11.1870   57.0290 H     998  HOH998      0.0000
   5099 H2         10.6260   10.4570   58.4030 H     998  HOH998      0.0000
   5100 O          30.8860   24.4480   72.8790 O.3   999  HOH999      0.0000
   5101 H1         30.8160   24.9450   73.7450 H     999  HOH999      0.0000
   5102 H2         31.1680   25.0720   72.1500 H     999  HOH999      0.0000
   5103 O          12.1200    4.9380   54.5430 O.3   1000  HOH1000     0.0000
   5104 H1         11.2160    4.8590   54.9650 H     1000  HOH1000     0.0000
   5105 H2         12.0580    4.7480   53.5640 H     1000  HOH1000     0.0000
   5106 O          31.2890   11.8450   73.7290 O.3   1001  HOH1001     0.0000
   5107 H1         30.7640   11.1940   73.1780 H     1001  HOH1001     0.0000
   5108 H2         31.3450   12.7240   73.2570 H     1001  HOH1001     0.0000
   5109 O          28.4290   23.3310   53.6830 O.3   1002  HOH1002     0.0000
   5110 H1         28.6500   24.3060   53.6340 H     1002  HOH1002     0.0000
   5111 H2         28.1400   23.0930   54.6100 H     1002  HOH1002     0.0000
   5112 O           1.0010   12.5940   65.1350 O.3   1003  HOH1003     0.0000
   5113 H1          1.3370   11.6910   65.4050 H     1003  HOH1003     0.0000
   5114 H2          1.1190   13.2410   65.8870 H     1003  HOH1003     0.0000
   5115 O          28.3230   30.4310   12.5280 O.3   1004  HOH1004     0.0000
   5116 H1         29.1670   30.4730   13.0630 H     1004  HOH1004     0.0000
   5117 H2         28.5200   30.1070   11.6030 H     1004  HOH1004     0.0000
   5118 O          29.0540   31.4190   16.0480 O.3   1005  HOH1005     0.0000
   5119 H1         28.5990   32.2400   16.3960 H     1005  HOH1005     0.0000
   5120 H2         28.7110   31.1990   15.1360 H     1005  HOH1005     0.0000
   5121 O          17.8600   27.9740   51.6520 O.3   1006  HOH1006     0.0000
   5122 H1         17.1830   27.2950   51.9380 H     1006  HOH1006     0.0000
   5123 H2         18.3040   27.6800   50.8070 H     1006  HOH1006     0.0000
   5124 O          18.3580    7.6990   56.7420 O.3   1007  HOH1007     0.0000
   5125 H1         18.5460    6.7480   56.4950 H     1007  HOH1007     0.0000
   5126 H2         17.3810    7.8210   56.9130 H     1007  HOH1007     0.0000
   5127 O          17.7920   22.9450   18.8260 O.3   1008  HOH1008     0.0000
   5128 H1         17.2690   22.4430   18.1350 H     1008  HOH1008     0.0000
   5129 H2         18.6590   22.4800   19.0020 H     1008  HOH1008     0.0000
   5130 O           8.6350   27.3630   18.7450 O.3   1009  HOH1009     0.0000
   5131 H1          8.7350   28.2130   19.2650 H     1009  HOH1009     0.0000
   5132 H2          7.7080   27.2940   18.3780 H     1009  HOH1009     0.0000
   5133 O          10.9460   16.7780   13.5730 O.3   1010  HOH1010     0.0000
   5134 H1          9.9690   16.5750   13.6580 H     1010  HOH1010     0.0000
   5135 H2         11.3330   16.2750   12.8010 H     1010  HOH1010     0.0000
   5136 O          25.8540    1.5070   67.5810 O.3   1011  HOH1011     0.0000
   5137 H1         24.9280    1.1670   67.7480 H     1011  HOH1011     0.0000
   5138 H2         26.2580    1.0320   66.8000 H     1011  HOH1011     0.0000
   5139 O          27.1460   17.9300    9.9400 O.3   1012  HOH1012     0.0000
   5140 H1         26.1800   17.9350    9.6780 H     1012  HOH1012     0.0000
   5141 H2         27.2740   18.4540   10.7810 H     1012  HOH1012     0.0000
   5142 O          26.5530   21.5600    1.3850 O.3   1013  HOH1013     0.0000
   5143 H1         27.4150   21.8950    0.9990 H     1013  HOH1013     0.0000
   5144 H2         26.6930   21.2660    2.3290 H     1013  HOH1013     0.0000
   5145 O           3.8330   20.2510    2.1280 O.3   1014  HOH1014     0.0000
   5146 H1          4.0150   21.1030    1.6330 H     1014  HOH1014     0.0000
   5147 H2          3.0940   20.3890    2.7850 H     1014  HOH1014     0.0000
   5148 O          33.2610    5.5530   59.1670 O.3   1015  HOH1015     0.0000
   5149 H1         33.0280    4.6710   59.5810 H     1015  HOH1015     0.0000
   5150 H2         32.4270    6.0350   58.8990 H     1015  HOH1015     0.0000
   5151 O          20.1110   31.8470    3.1610 O.3   1016  HOH1016     0.0000
   5152 H1         21.0210   31.6120    3.5050 H     1016  HOH1016     0.0000
   5153 H2         20.1820   32.2340    2.2420 H     1016  HOH1016     0.0000
   5154 O          12.0020   15.5320   63.9670 O.3   1017  HOH1017     0.0000
   5155 H1         11.3900   16.3130   64.1030 H     1017  HOH1017     0.0000
   5156 H2         12.7290   15.7760   63.3260 H     1017  HOH1017     0.0000
   5157 O          20.7900   30.1310   69.7630 O.3   1018  HOH1018     0.0000
   5158 H1         21.5900   30.2510   70.3520 H     1018  HOH1018     0.0000
   5159 H2         21.0400   29.6050   68.9510 H     1018  HOH1018     0.0000
   5160 O          25.2660   11.4650    9.4080 O.3   1019  HOH1019     0.0000
   5161 H1         24.5150   11.6840    8.7830 H     1019  HOH1019     0.0000
   5162 H2         25.2270   12.0590   10.2110 H     1019  HOH1019     0.0000
   5163 O          18.1250   17.2870   59.0370 O.3   1020  HOH1020     0.0000
   5164 H1         17.2590   17.7890   59.0240 H     1020  HOH1020     0.0000
   5165 H2         18.8420   17.8340   58.6050 H     1020  HOH1020     0.0000
   5166 O          29.5790    7.5830   67.5120 O.3   1021  HOH1021     0.0000
   5167 H1         29.7740    6.6100   67.6450 H     1021  HOH1021     0.0000
   5168 H2         29.3480    8.0070   68.3860 H     1021  HOH1021     0.0000
   5169 O          13.6250   32.0960    8.5270 O.3   1022  HOH1022     0.0000
   5170 H1         12.9180   32.2400    7.8330 H     1022  HOH1022     0.0000
   5171 H2         14.5240   32.0490    8.0930 H     1022  HOH1022     0.0000
   5172 O           2.8230   23.2780   12.6350 O.3   1023  HOH1023     0.0000
   5173 H1          3.2360   22.6410   13.2880 H     1023  HOH1023     0.0000
   5174 H2          3.5210   23.8910   12.2680 H     1023  HOH1023     0.0000
   5175 O           7.0890   12.0580   14.8000 O.3   1024  HOH1024     0.0000
   5176 H1          7.6200   11.2280   14.9750 H     1024  HOH1024     0.0000
   5177 H2          7.0080   12.5950   15.6390 H     1024  HOH1024     0.0000
   5178 O           6.0880    5.1060   73.2490 O.3   1025  HOH1025     0.0000
   5179 H1          5.8330    5.8520   72.6310 H     1025  HOH1025     0.0000
   5180 H2          6.6440    5.4600   74.0000 H     1025  HOH1025     0.0000
   5181 O          16.4580   14.8930   59.3420 O.3   1026  HOH1026     0.0000
   5182 H1         16.0260   14.5450   60.1760 H     1026  HOH1026     0.0000
   5183 H2         15.7600   15.1080   58.6600 H     1026  HOH1026     0.0000
   5184 O          28.2800   11.5920   10.0620 O.3   1027  HOH1027     0.0000
   5185 H1         28.0830   10.6540   10.3520 H     1027  HOH1027     0.0000
   5186 H2         27.5140   12.1900   10.2970 H     1027  HOH1027     0.0000
   5187 O          15.6480    8.0230   17.7300 O.3   1028  HOH1028     0.0000
   5188 H1         14.9220    8.6430   17.4300 H     1028  HOH1028     0.0000
   5189 H2         16.2750    8.5020   18.3440 H     1028  HOH1028     0.0000
   5190 O           4.1540   31.1280   21.7520 O.3   1029  HOH1029     0.0000
   5191 H1          3.9670   30.1810   21.4860 H     1029  HOH1029     0.0000
   5192 H2          4.4980   31.1580   22.6900 H     1029  HOH1029     0.0000
   5193 O           6.5460   16.6030    8.9500 O.3   1030  HOH1030     0.0000
   5194 H1          6.5430   15.8160    8.3320 H     1030  HOH1030     0.0000
   5195 H2          7.4840   16.9060    9.1120 H     1030  HOH1030     0.0000
   5196 O          20.3280   12.1960   61.8170 O.3   1031  HOH1031     0.0000
   5197 H1         19.9040   13.0650   61.5570 H     1031  HOH1031     0.0000
   5198 H2         20.9610   12.3380   62.5760 H     1031  HOH1031     0.0000
   5199 O          28.5950   18.4200   14.6290 O.3   1032  HOH1032     0.0000
   5200 H1         28.5540   19.1810   13.9800 H     1032  HOH1032     0.0000
   5201 H2         29.1600   18.6710   15.4150 H     1032  HOH1032     0.0000
   5202 O          22.6000   27.5820   21.5300 O.3   1033  HOH1033     0.0000
   5203 H1         23.4410   27.0690   21.7080 H     1033  HOH1033     0.0000
   5204 H2         22.7500   28.2420   20.7950 H     1033  HOH1033     0.0000
   5205 O          11.9420    5.6800   61.2130 O.3   1034  HOH1034     0.0000
   5206 H1         12.3090    4.7660   61.0310 H     1034  HOH1034     0.0000
   5207 H2         10.9460    5.6380   61.2920 H     1034  HOH1034     0.0000
   5208 O           2.4850   17.2870   12.1960 O.3   1035  HOH1035     0.0000
   5209 H1          3.2790   17.7770   12.5610 H     1035  HOH1035     0.0000
   5210 H2          2.0670   16.7310   12.9130 H     1035  HOH1035     0.0000
   5211 O          31.6250   30.2180   21.8200 O.3   1036  HOH1036     0.0000
   5212 H1         32.4880   30.7140   21.7090 H     1036  HOH1036     0.0000
   5213 H2         31.5410   29.8860   22.7580 H     1036  HOH1036     0.0000
   5214 O          19.3570    7.9040   69.3250 O.3   1037  HOH1037     0.0000
   5215 H1         18.4520    7.5710   69.5960 H     1037  HOH1037     0.0000
   5216 H2         19.2690    8.7710   68.8360 H     1037  HOH1037     0.0000
   5217 O          17.7750   27.4650    3.5140 O.3   1038  HOH1038     0.0000
   5218 H1         17.3270   26.9690    4.2600 H     1038  HOH1038     0.0000
   5219 H2         17.0970   27.7440    2.8340 H     1038  HOH1038     0.0000
   5220 O          13.6330   16.3530   11.4660 O.3   1039  HOH1039     0.0000
   5221 H1         13.5820   16.8930   10.6250 H     1039  HOH1039     0.0000
   5222 H2         14.5760   16.3190   11.7940 H     1039  HOH1039     0.0000
   5223 O          10.8840    9.5940   74.0050 O.3   1040  HOH1040     0.0000
   5224 H1         10.6730    8.6360   73.8050 H     1040  HOH1040     0.0000
   5225 H2         11.8000    9.8180   73.6740 H     1040  HOH1040     0.0000
   5226 O           9.5720   26.2200   11.3980 O.3   1041  HOH1041     0.0000
   5227 H1          8.6080   25.9970   11.2480 H     1041  HOH1041     0.0000
   5228 H2          9.9540   26.6490   10.5800 H     1041  HOH1041     0.0000
   5229 O          29.5110    8.8260    9.3270 O.3   1042  HOH1042     0.0000
   5230 H1         30.1750    8.0790    9.3820 H     1042  HOH1042     0.0000
   5231 H2         29.6900    9.3840    8.5180 H     1042  HOH1042     0.0000
   5232 O          17.5380   12.5270   55.6580 O.3   1043  HOH1043     0.0000
   5233 H1         17.7700   13.4240   55.2790 H     1043  HOH1043     0.0000
   5234 H2         17.9440   12.4240   56.5650 H     1043  HOH1043     0.0000
   5235 O          25.6880    7.0670   69.0610 O.3   1044  HOH1044     0.0000
   5236 H1         25.5690    6.2180   68.5440 H     1044  HOH1044     0.0000
   5237 H2         25.0950    7.0630   69.8650 H     1044  HOH1044     0.0000
   5238 O           5.7020   14.6840   10.9020 O.3   1045  HOH1045     0.0000
   5239 H1          6.4640   15.3220   10.7790 H     1045  HOH1045     0.0000
   5240 H2          5.9560   13.9710   11.5550 H     1045  HOH1045     0.0000
   5241 O           9.2810   14.9800    9.6180 O.3   1046  HOH1046     0.0000
   5242 H1          9.7150   15.8340    9.3260 H     1046  HOH1046     0.0000
   5243 H2          8.3760   14.8980    9.2020 H     1046  HOH1046     0.0000
   5244 O          30.9460   27.8000   59.4240 O.3   1047  HOH1047     0.0000
   5245 H1         31.5090   28.3560   58.8100 H     1047  HOH1047     0.0000
   5246 H2         31.4830   27.5220   60.2200 H     1047  HOH1047     0.0000
   5247 O           2.6090    8.9470   54.5980 O.3   1048  HOH1048     0.0000
   5248 H1          2.1970    9.1520   53.7100 H     1048  HOH1048     0.0000
   5249 H2          1.9030    8.9130   55.3040 H     1048  HOH1048     0.0000
   5250 O          23.0780   11.7050    3.3440 O.3   1049  HOH1049     0.0000
   5251 H1         22.2660   12.0690    3.8030 H     1049  HOH1049     0.0000
   5252 H2         23.7750   12.4170    3.2680 H     1049  HOH1049     0.0000
   5253 O          24.6760   16.0140   19.3390 O.3   1050  HOH1050     0.0000
   5254 H1         25.5820   16.4400   19.3230 H     1050  HOH1050     0.0000
   5255 H2         23.9750   16.6940   19.1270 H     1050  HOH1050     0.0000
   5256 O           9.7040   14.7680   71.5420 O.3   1051  HOH1051     0.0000
   5257 H1         10.5490   15.2040   71.2290 H     1051  HOH1051     0.0000
   5258 H2          9.8100   14.4560   72.4860 H     1051  HOH1051     0.0000
   5259 O           1.0000   15.9750    4.3560 O.3   1052  HOH1052     0.0000
   5260 H1          1.4340   15.0820    4.4800 H     1052  HOH1052     0.0000
   5261 H2          1.0170   16.2320    3.3910 H     1052  HOH1052     0.0000
   5262 O           2.7140   22.5540   65.8250 O.3   1053  HOH1053     0.0000
   5263 H1          2.5890   22.9730   66.7260 H     1053  HOH1053     0.0000
   5264 H2          1.8400   22.5170   65.3420 H     1053  HOH1053     0.0000
   5265 O           4.6650   31.7360   73.4970 O.3   1054  HOH1054     0.0000
   5266 H1          4.4080   32.2400   72.6710 H     1054  HOH1054     0.0000
   5267 H2          3.8450   31.4650   74.0000 H     1054  HOH1054     0.0000
   5268 O          23.2620   20.9590   10.6840 O.3   1055  HOH1055     0.0000
   5269 H1         23.3210   21.8720   10.2780 H     1055  HOH1055     0.0000
   5270 H2         22.3270   20.6140   10.6120 H     1055  HOH1055     0.0000
   5271 O          28.7270   25.1040   66.3410 O.3   1056  HOH1056     0.0000
   5272 H1         29.3110   24.9550   65.5410 H     1056  HOH1056     0.0000
   5273 H2         28.0870   25.8500   66.1620 H     1056  HOH1056     0.0000
   5274 O          21.2270   25.6390   70.6740 O.3   1057  HOH1057     0.0000
   5275 H1         20.3720   26.0890   70.4100 H     1057  HOH1057     0.0000
   5276 H2         21.5810   26.0450   71.5160 H     1057  HOH1057     0.0000
   5277 O          14.0270    1.4500   15.4410 O.3   1058  HOH1058     0.0000
   5278 H1         13.5770    2.2820   15.7680 H     1058  HOH1058     0.0000
   5279 H2         14.5460    1.6460   14.6100 H     1058  HOH1058     0.0000
   5280 O          28.9510   12.1880   65.8300 O.3   1059  HOH1059     0.0000
   5281 H1         29.7210   12.5760   66.3390 H     1059  HOH1059     0.0000
   5282 H2         28.7170   12.7810   65.0600 H     1059  HOH1059     0.0000
   5283 O           4.0850   14.5970    7.7310 O.3   1060  HOH1060     0.0000
   5284 H1          4.9390   14.7540    7.2320 H     1060  HOH1060     0.0000
   5285 H2          4.2800   14.4380    8.6990 H     1060  HOH1060     0.0000
   5286 O          19.3230   28.5560   56.5490 O.3   1061  HOH1061     0.0000
   5287 H1         19.3540   29.5200   56.8190 H     1061  HOH1061     0.0000
   5288 H2         20.1760   28.3010   56.0940 H     1061  HOH1061     0.0000
   5289 O          22.7560   31.3200   16.8930 O.3   1062  HOH1062     0.0000
   5290 H1         23.0710   31.7800   17.7250 H     1062  HOH1062     0.0000
   5291 H2         22.1820   30.5380   17.1320 H     1062  HOH1062     0.0000
   5292 O           4.2510   16.9610    6.3320 O.3   1063  HOH1063     0.0000
   5293 H1          5.2310   16.7690    6.3990 H     1063  HOH1063     0.0000
   5294 H2          3.7940   16.7070    7.1830 H     1063  HOH1063     0.0000
   5295 O          10.3910   10.9560    4.9390 O.3   1064  HOH1064     0.0000
   5296 H1         10.0890   11.8640    5.2340 H     1064  HOH1064     0.0000
   5297 H2         10.9820   11.0350    4.1370 H     1064  HOH1064     0.0000
   5298 O          13.5780    6.9310    4.0280 O.3   1065  HOH1065     0.0000
   5299 H1         12.7250    7.2160    4.4670 H     1065  HOH1065     0.0000
   5300 H2         13.5500    5.9510    3.8310 H     1065  HOH1065     0.0000
   5301 O          10.5190   24.8540    9.2350 O.3   1066  HOH1066     0.0000
   5302 H1         11.3520   24.4470    8.8570 H     1066  HOH1066     0.0000
   5303 H2         10.3730   24.5280   10.1680 H     1066  HOH1066     0.0000
   5304 O          24.2400   11.1340   15.8680 O.3   1067  HOH1067     0.0000
   5305 H1         23.8950   11.7520   16.5760 H     1067  HOH1067     0.0000
   5306 H2         25.0670   11.5140   15.4550 H     1067  HOH1067     0.0000
   5307 O          22.3690    4.5940   13.4430 O.3   1068  HOH1068     0.0000
   5308 H1         21.6600    3.9950   13.8180 H     1068  HOH1068     0.0000
   5309 H2         23.2660    4.1640   13.5410 H     1068  HOH1068     0.0000
   5310 O          16.1420   21.5520   54.8330 O.3   1069  HOH1069     0.0000
   5311 H1         17.0440   21.3170   54.4690 H     1069  HOH1069     0.0000
   5312 H2         16.2240   21.8500   55.7840 H     1069  HOH1069     0.0000
   5313 O           2.8630   19.5980   67.9550 O.3   1070  HOH1070     0.0000
   5314 H1          3.6540   19.0800   67.6250 H     1070  HOH1070     0.0000
   5315 H2          2.7120   19.4100   68.9240 H     1070  HOH1070     0.0000
   5316 O          10.5030    3.9420    6.7500 O.3   1071  HOH1071     0.0000
   5317 H1         10.6940    3.0590    7.1800 H     1071  HOH1071     0.0000
   5318 H2          9.5550    4.2070    6.9200 H     1071  HOH1071     0.0000
   5319 O          30.5500   14.2500   55.0890 O.3   1072  HOH1072     0.0000
   5320 H1         30.5080   15.2490   55.1310 H     1072  HOH1072     0.0000
   5321 H2         30.7220   13.9540   54.1500 H     1072  HOH1072     0.0000
   5322 O          24.0030    8.6320   21.2970 O.3   1073  HOH1073     0.0000
   5323 H1         23.3940    8.8470   22.0620 H     1073  HOH1073     0.0000
   5324 H2         24.7760    9.2640   21.2880 H     1073  HOH1073     0.0000
   5325 O          21.9750   20.3140   13.4220 O.3   1074  HOH1074     0.0000
   5326 H1         21.5930   19.9460   12.5730 H     1074  HOH1074     0.0000
   5327 H2         22.4070   21.1980   13.2480 H     1074  HOH1074     0.0000
   5328 O          14.3480    2.0510   66.3740 O.3   1075  HOH1075     0.0000
   5329 H1         14.7280    2.8850   65.9710 H     1075  HOH1075     0.0000
   5330 H2         14.1960    2.1840   67.3530 H     1075  HOH1075     0.0000
   5331 O          10.5080   10.4250   14.5490 O.3   1076  HOH1076     0.0000
   5332 H1         10.6540    9.8890   13.7160 H     1076  HOH1076     0.0000
   5333 H2         11.2650   10.2800   15.1850 H     1076  HOH1076     0.0000
   5334 O          29.2890    8.3290   58.4800 O.3   1077  HOH1077     0.0000
   5335 H1         28.5310    7.6900   58.6220 H     1077  HOH1077     0.0000
   5336 H2         29.1560    9.1460   59.0390 H     1077  HOH1077     0.0000
   5337 O          21.0390   13.8200   13.8980 O.3   1078  HOH1078     0.0000
   5338 H1         20.3290   14.5100   14.0450 H     1078  HOH1078     0.0000
   5339 H2         20.8390   13.2930   13.0730 H     1078  HOH1078     0.0000
   5340 O          31.4500   20.8670   19.4160 O.3   1079  HOH1079     0.0000
   5341 H1         30.5090   20.5780   19.2340 H     1079  HOH1079     0.0000
   5342 H2         32.0900   20.1640   19.1070 H     1079  HOH1079     0.0000
   5343 O           1.2980   10.7180   58.2260 O.3   1080  HOH1080     0.0000
   5344 H1          1.0000    9.8090   58.5220 H     1080  HOH1080     0.0000
   5345 H2          2.0600   10.6350   57.5850 H     1080  HOH1080     0.0000
   5346 O          15.6470   23.4350    7.4170 O.3   1081  HOH1081     0.0000
   5347 H1         16.1360   24.2600    7.1290 H     1081  HOH1081     0.0000
   5348 H2         16.0600   23.0660    8.2490 H     1081  HOH1081     0.0000
   5349 O           3.6800    8.7030   20.5620 O.3   1082  HOH1082     0.0000
   5350 H1          2.8160    8.3890   20.9580 H     1082  HOH1082     0.0000
   5351 H2          3.9030    9.6140   20.9070 H     1082  HOH1082     0.0000
   5352 O          17.8770   14.9120   57.5050 O.3   1083  HOH1083     0.0000
   5353 H1         18.1120   15.8730   57.3530 H     1083  HOH1083     0.0000
   5354 H2         17.0780   14.6650   56.9580 H     1083  HOH1083     0.0000
   5355 O           5.2450   28.7040   19.4460 O.3   1084  HOH1084     0.0000
   5356 H1          4.3490   28.4570   19.8190 H     1084  HOH1084     0.0000
   5357 H2          5.3470   28.3290   18.5260 H     1084  HOH1084     0.0000
   5358 O          21.0920    2.1150   11.4190 O.3   1085  HOH1085     0.0000
   5359 H1         21.7390    2.8160   11.7240 H     1085  HOH1085     0.0000
   5360 H2         20.5200    1.8220   12.1840 H     1085  HOH1085     0.0000
   5361 O          31.0220    3.9780    4.4480 O.3   1086  HOH1086     0.0000
   5362 H1         30.3160    4.1130    3.7520 H     1086  HOH1086     0.0000
   5363 H2         30.8140    4.5260    5.2570 H     1086  HOH1086     0.0000
   5364 O          10.3730    5.6400   68.0640 O.3   1087  HOH1087     0.0000
   5365 H1          9.7700    5.1180   67.4580 H     1087  HOH1087     0.0000
   5366 H2         10.8840    6.3170   67.5370 H     1087  HOH1087     0.0000
   5367 O          17.2250   23.3030   67.4700 O.3   1088  HOH1088     0.0000
   5368 H1         18.1310   23.5880   67.1520 H     1088  HOH1088     0.0000
   5369 H2         16.8350   24.0070   68.0630 H     1088  HOH1088     0.0000
   5370 O           5.9160   20.7660   57.2350 O.3   1089  HOH1089     0.0000
   5371 H1          5.5060   21.1240   56.3950 H     1089  HOH1089     0.0000
   5372 H2          5.6430   21.3280   58.0150 H     1089  HOH1089     0.0000
   5373 O          25.9490    7.0190    1.4640 O.3   1090  HOH1090     0.0000
   5374 H1         26.6730    7.1650    2.1400 H     1090  HOH1090     0.0000
   5375 H2         26.0880    6.1450    0.9990 H     1090  HOH1090     0.0000
   5376 O           1.6880   24.1510   61.9230 O.3   1091  HOH1091     0.0000
   5377 H1          2.5400   23.7340   62.2450 H     1091  HOH1091     0.0000
   5378 H2          0.9900   23.4480   61.7960 H     1091  HOH1091     0.0000
   5379 O          22.5950   15.6110   59.3990 O.3   1092  HOH1092     0.0000
   5380 H1         21.8230   15.9560   59.9350 H     1092  HOH1092     0.0000
   5381 H2         22.3710   15.6310   58.4250 H     1092  HOH1092     0.0000
   5382 O          21.9670   27.7560   59.6670 O.3   1093  HOH1093     0.0000
   5383 H1         21.5390   26.9290   60.0350 H     1093  HOH1093     0.0000
   5384 H2         22.3170   27.5790   58.7480 H     1093  HOH1093     0.0000
   5385 O          12.0670    9.4260   66.9290 O.3   1094  HOH1094     0.0000
   5386 H1         12.9660    9.8310   67.1020 H     1094  HOH1094     0.0000
   5387 H2         11.8990    9.3750   65.9450 H     1094  HOH1094     0.0000
   5388 O          14.1130   31.6770   12.0970 O.3   1095  HOH1095     0.0000
   5389 H1         13.5660   32.2400   11.4760 H     1095  HOH1095     0.0000
   5390 H2         14.8950   32.2000   12.4340 H     1095  HOH1095     0.0000
   5391 O           3.2520   31.3390   12.4210 O.3   1096  HOH1096     0.0000
   5392 H1          3.6810   32.2400   12.3410 H     1096  HOH1096     0.0000
   5393 H2          2.7040   31.2950   13.2550 H     1096  HOH1096     0.0000
   5394 O          18.0780    9.2090   66.8760 O.3   1097  HOH1097     0.0000
   5395 H1         18.3670    9.3090   65.9220 H     1097  HOH1097     0.0000
   5396 H2         17.1440    8.8570   66.9150 H     1097  HOH1097     0.0000
   5397 O          10.0100   20.8570   20.3410 O.3   1098  HOH1098     0.0000
   5398 H1         10.6720   21.5310   20.6720 H     1098  HOH1098     0.0000
   5399 H2          9.7160   21.0930   19.4160 H     1098  HOH1098     0.0000
   5400 O           6.0410   32.2400   19.6750 O.3   1099  HOH1099     0.0000
   5401 H1          5.2070   31.7450   19.9220 H     1099  HOH1099     0.0000
   5402 H2          6.6190   31.6680   19.0950 H     1099  HOH1099     0.0000
   5403 O           2.9060   30.1390   64.5480 O.3   1100  HOH1100     0.0000
   5404 H1          1.9870   30.5070   64.4000 H     1100  HOH1100     0.0000
   5405 H2          3.0510   29.9630   65.5210 H     1100  HOH1100     0.0000
   5406 O          17.8070    1.5410   51.0550 O.3   1101  HOH1101     0.0000
   5407 H1         18.6750    1.8590   51.4370 H     1101  HOH1101     0.0000
   5408 H2         17.3100    1.0040   51.7360 H     1101  HOH1101     0.0000
   5409 O          13.5640   21.5130    6.4900 O.3   1102  HOH1102     0.0000
   5410 H1         14.5650   21.5100    6.4800 H     1102  HOH1102     0.0000
   5411 H2         13.2150   21.9090    5.6420 H     1102  HOH1102     0.0000
   5412 O           1.0100   14.0840   73.9990 O.3   1103  HOH1103     0.0000
   5413 H1          1.7670   14.7390   73.9920 H     1103  HOH1103     0.0000
   5414 H2          1.3620   13.1540   73.9030 H     1103  HOH1103     0.0000
   5415 O          13.6640   31.5370   70.0940 O.3   1104  HOH1104     0.0000
   5416 H1         14.0630   32.2220   69.4820 H     1104  HOH1104     0.0000
   5417 H2         13.5570   30.6690   69.6120 H     1104  HOH1104     0.0000
   5418 O          28.6480   15.3820    1.1660 O.3   1105  HOH1105     0.0000
   5419 H1         29.6070   15.6170    0.9990 H     1105  HOH1105     0.0000
   5420 H2         28.0890   16.2110    1.1650 H     1105  HOH1105     0.0000
   5421 O          17.9820    5.8130   10.5170 O.3   1106  HOH1106     0.0000
   5422 H1         18.3860    5.1260   11.1220 H     1106  HOH1106     0.0000
   5423 H2         17.0670    6.0530   10.8360 H     1106  HOH1106     0.0000
   5424 O          10.5560   23.9270   21.5060 O.3   1107  HOH1107     0.0000
   5425 H1         10.9630   24.3180   20.6800 H     1107  HOH1107     0.0000
   5426 H2         11.2410   23.8720   22.2310 H     1107  HOH1107     0.0000
   5427 O          24.0270   28.9600   58.6400 O.3   1108  HOH1108     0.0000
   5428 H1         24.9170   29.2430   58.2810 H     1108  HOH1108     0.0000
   5429 H2         24.1420   28.5250   59.5320 H     1108  HOH1108     0.0000
   5430 O           9.7600   14.8740   63.7530 O.3   1109  HOH1109     0.0000
   5431 H1         10.3620   14.0780   63.8180 H     1109  HOH1109     0.0000
   5432 H2          9.8270   15.2800   62.8420 H     1109  HOH1109     0.0000
   5433 O          33.2600   21.4180   58.7390 O.3   1110  HOH1110     0.0000
   5434 H1         32.4320   20.8590   58.7980 H     1110  HOH1110     0.0000
   5435 H2         33.2570   21.9440   57.8890 H     1110  HOH1110     0.0000
   5436 O          17.2170   10.6370    4.0190 O.3   1111  HOH1111     0.0000
   5437 H1         17.3000    9.6960    4.3520 H     1111  HOH1111     0.0000
   5438 H2         17.7180   10.7400    3.1600 H     1111  HOH1111     0.0000
   5439 O          16.1600   21.2670   66.0650 O.3   1112  HOH1112     0.0000
   5440 H1         15.6130   20.5120   65.7000 H     1112  HOH1112     0.0000
   5441 H2         16.4440   21.0620   67.0010 H     1112  HOH1112     0.0000
   5442 O           8.1880    4.8800   59.7180 O.3   1113  HOH1113     0.0000
   5443 H1          8.6990    5.6600   60.0840 H     1113  HOH1113     0.0000
   5444 H2          7.8740    5.0820   58.7910 H     1113  HOH1113     0.0000
   5445 O           7.2800    9.3670   59.3970 O.3   1114  HOH1114     0.0000
   5446 H1          8.0990    9.6340   58.8870 H     1114  HOH1114     0.0000
   5447 H2          7.1830    9.9380   60.2110 H     1114  HOH1114     0.0000
   5448 O          15.1170   29.0990    7.2040 O.3   1115  HOH1115     0.0000
   5449 H1         15.1090   29.4400    8.1450 H     1115  HOH1115     0.0000
   5450 H2         14.9440   28.1150    7.1960 H     1115  HOH1115     0.0000
   5451 O          32.1010   32.1500   17.2220 O.3   1116  HOH1116     0.0000
   5452 H1         31.5730   32.2400   18.0680 H     1116  HOH1116     0.0000
   5453 H2         33.0770   32.2400   17.4170 H     1116  HOH1116     0.0000
   5454 O          19.5850   31.5520   71.9770 O.3   1117  HOH1117     0.0000
   5455 H1         19.9330   30.6320   71.7900 H     1117  HOH1117     0.0000
   5456 H2         20.0990   31.9660   72.7280 H     1117  HOH1117     0.0000
   5457 O          29.4870   23.3230   60.2060 O.3   1118  HOH1118     0.0000
   5458 H1         29.7450   23.8050   61.0450 H     1118  HOH1118     0.0000
   5459 H2         29.4270   23.9680   59.4460 H     1118  HOH1118     0.0000
   5460 O          16.9030   20.6360   15.7300 O.3   1119  HOH1119     0.0000
   5461 H1         17.0200   19.7260   16.1300 H     1119  HOH1119     0.0000
   5462 H2         16.1510   21.1130   16.1830 H     1119  HOH1119     0.0000
   5463 O          26.3840   10.3700   60.5800 O.3   1120  HOH1120     0.0000
   5464 H1         25.5640   10.8160   60.2170 H     1120  HOH1120     0.0000
   5465 H2         27.1390   11.0240   60.6210 H     1120  HOH1120     0.0000
   5466 O          26.6690   13.8180   56.5920 O.3   1121  HOH1121     0.0000
   5467 H1         26.4840   13.4380   55.6850 H     1121  HOH1121     0.0000
   5468 H2         25.8120   13.9500   57.0890 H     1121  HOH1121     0.0000
   5469 O           2.1600    2.5840    4.9610 O.3   1122  HOH1122     0.0000
   5470 H1          1.2560    2.6660    4.5400 H     1122  HOH1122     0.0000
   5471 H2          2.1040    2.7970    5.9360 H     1122  HOH1122     0.0000
   5472 O           9.7160   23.7150    6.8280 O.3   1123  HOH1123     0.0000
   5473 H1          9.3980   24.5040    7.3560 H     1123  HOH1123     0.0000
   5474 H2          9.3000   23.7220    5.9190 H     1123  HOH1123     0.0000
   5475 O          16.2090   19.2990   54.2110 O.3   1124  HOH1124     0.0000
   5476 H1         15.5260   19.7620   53.6450 H     1124  HOH1124     0.0000
   5477 H2         16.1730   18.3130   54.0510 H     1124  HOH1124     0.0000
   5478 O          13.4230   27.7120   55.5040 O.3   1125  HOH1125     0.0000
   5479 H1         13.9070   26.8710   55.2590 H     1125  HOH1125     0.0000
   5480 H2         12.7900   27.5360   56.2570 H     1125  HOH1125     0.0000
   5481 O          10.8510   29.7180   18.2890 O.3   1126  HOH1126     0.0000
   5482 H1         10.0050   29.9410   18.7750 H     1126  HOH1126     0.0000
   5483 H2         11.5670   29.4780   18.9440 H     1126  HOH1126     0.0000
   5484 O          16.4020    2.4180    6.8660 O.3   1127  HOH1127     0.0000
   5485 H1         17.1100    2.7070    6.2200 H     1127  HOH1127     0.0000
   5486 H2         16.7690    2.4140    7.7950 H     1127  HOH1127     0.0000
   5487 O          18.3120   25.4070   72.6410 O.3   1128  HOH1128     0.0000
   5488 H1         19.0790   26.0260   72.4630 H     1128  HOH1128     0.0000
   5489 H2         17.8570   25.1710   71.7830 H     1128  HOH1128     0.0000
   5490 O          14.6600    6.4240   22.3330 O.3   1129  HOH1129     0.0000
   5491 H1         14.9200    5.7730   21.6180 H     1129  HOH1129     0.0000
   5492 H2         15.1150    7.3000   22.1790 H     1129  HOH1129     0.0000
   5493 O          20.0050    5.6410   62.2870 O.3   1130  HOH1130     0.0000
   5494 H1         19.7070    4.8860   62.8730 H     1130  HOH1130     0.0000
   5495 H2         20.1490    5.3130   61.3540 H     1130  HOH1130     0.0000
   5496 O          24.3480   26.9580   62.0070 O.3   1131  HOH1131     0.0000
   5497 H1         24.6390   27.8030   61.5560 H     1131  HOH1131     0.0000
   5498 H2         24.8740   26.8200   62.8460 H     1131  HOH1131     0.0000
   5499 O          32.6500   23.1930   73.2680 O.3   1132  HOH1132     0.0000
   5500 H1         33.1650   22.5690   73.8580 H     1132  HOH1132     0.0000
   5501 H2         33.2600   23.6050   72.5910 H     1132  HOH1132     0.0000
   5502 O          18.6910    2.0750   67.0970 O.3   1133  HOH1133     0.0000
   5503 H1         18.6030    1.0850   66.9760 H     1133  HOH1133     0.0000
   5504 H2         19.6510    2.3190   67.2250 H     1133  HOH1133     0.0000
   5505 O           4.9890    6.9460   20.7660 O.3   1134  HOH1134     0.0000
   5506 H1          4.4150    6.1520   20.9700 H     1134  HOH1134     0.0000
   5507 H2          5.4120    6.8400   19.8670 H     1134  HOH1134     0.0000
   5508 O          22.7600   15.1690   14.1310 O.3   1135  HOH1135     0.0000
   5509 H1         22.4740   15.9870   14.6320 H     1135  HOH1135     0.0000
   5510 H2         22.8730   15.3840   13.1620 H     1135  HOH1135     0.0000
   5511 O          10.0910    7.5820   53.8350 O.3   1136  HOH1136     0.0000
   5512 H1         10.7690    6.9390   54.1940 H     1136  HOH1136     0.0000
   5513 H2         10.3470    7.8670   52.9120 H     1136  HOH1136     0.0000
   5514 O           5.6930   24.4650   16.5810 O.3   1137  HOH1137     0.0000
   5515 H1          5.1910   24.8650   17.3490 H     1137  HOH1137     0.0000
   5516 H2          6.4890   25.0270   16.3620 H     1137  HOH1137     0.0000
   5517 O           8.3380   10.2360   18.3450 O.3   1138  HOH1138     0.0000
   5518 H1          7.4420   10.2950   18.7880 H     1138  HOH1138     0.0000
   5519 H2          8.4410    9.3470   17.9010 H     1138  HOH1138     0.0000
   5520 O          22.0880   20.6130   57.6710 O.3   1139  HOH1139     0.0000
   5521 H1         22.9060   20.1240   57.3620 H     1139  HOH1139     0.0000
   5522 H2         22.3440   21.5040   58.0450 H     1139  HOH1139     0.0000
   5523 O          22.8440    1.6460   60.5440 O.3   1140  HOH1140     0.0000
   5524 H1         22.7190    2.6360   60.4660 H     1140  HOH1140     0.0000
   5525 H2         23.6910    1.4460   61.0360 H     1140  HOH1140     0.0000
   5526 O          10.7020   20.7530   13.1630 O.3   1141  HOH1141     0.0000
   5527 H1         10.3880   20.0180   12.5600 H     1141  HOH1141     0.0000
   5528 H2         10.2110   21.5980   12.9540 H     1141  HOH1141     0.0000
   5529 O          27.7190   27.2370    5.1810 O.3   1142  HOH1142     0.0000
   5530 H1         28.0260   27.8360    5.9230 H     1142  HOH1142     0.0000
   5531 H2         27.0520   26.5780    5.5280 H     1142  HOH1142     0.0000
   5532 O          14.7610   24.2270   21.0560 O.3   1143  HOH1143     0.0000
   5533 H1         15.6060   24.7100   21.2890 H     1143  HOH1143     0.0000
   5534 H2         14.1580   24.1900   21.8520 H     1143  HOH1143     0.0000
   5535 O          10.6440    8.6750   16.5560 O.3   1144  HOH1144     0.0000
   5536 H1          9.7600    8.6140   16.0900 H     1144  HOH1144     0.0000
   5537 H2         10.5700    9.2740   17.3510 H     1144  HOH1144     0.0000
   5538 O          25.9280   29.5580   62.9870 O.3   1145  HOH1145     0.0000
   5539 H1         24.9700   29.3030   63.1310 H     1145  HOH1145     0.0000
   5540 H2         26.2510   29.1930   62.1150 H     1145  HOH1145     0.0000
   5541 O           8.1350    1.1250    8.9350 O.3   1146  HOH1146     0.0000
   5542 H1          7.7140    1.0980    8.0270 H     1146  HOH1146     0.0000
   5543 H2          7.4370    1.0000    9.6390 H     1146  HOH1146     0.0000
   5544 O          12.1290   28.4860   61.3860 O.3   1147  HOH1147     0.0000
   5545 H1         11.2210   28.8370   61.1540 H     1147  HOH1147     0.0000
   5546 H2         12.8060   28.8360   60.7400 H     1147  HOH1147     0.0000
   5547 O          25.3980    7.0610   11.1970 O.3   1148  HOH1148     0.0000
   5548 H1         26.1900    7.4530   10.7270 H     1148  HOH1148     0.0000
   5549 H2         24.5560    7.4640   10.8410 H     1148  HOH1148     0.0000
   5550 O           8.9380   23.8330   63.2260 O.3   1149  HOH1149     0.0000
   5551 H1          8.8450   24.4200   62.4210 H     1149  HOH1149     0.0000
   5552 H2          9.1850   22.9060   62.9470 H     1149  HOH1149     0.0000
   5553 O           4.3780    7.7180    4.2260 O.3   1150  HOH1150     0.0000
   5554 H1          3.6570    8.1170    4.7950 H     1150  HOH1150     0.0000
   5555 H2          5.1230    7.3850    4.8020 H     1150  HOH1150     0.0000
   5556 O          19.3090   17.0900   63.3190 O.3   1151  HOH1151     0.0000
   5557 H1         20.0670   16.5120   63.6220 H     1151  HOH1151     0.0000
   5558 H2         19.6430   17.7900   62.6890 H     1151  HOH1151     0.0000
   5559 O          25.2240   26.7460   58.8240 O.3   1152  HOH1152     0.0000
   5560 H1         24.8040   26.4320   59.6770 H     1152  HOH1152     0.0000
   5561 H2         24.5220   26.8780   58.1260 H     1152  HOH1152     0.0000
   5562 O          31.8480   16.5290   10.3070 O.3   1153  HOH1153     0.0000
   5563 H1         31.6550   17.3650   10.8220 H     1153  HOH1153     0.0000
   5564 H2         30.9980   16.0350   10.1260 H     1153  HOH1153     0.0000
   5565 O          25.3510   18.9000   15.2850 O.3   1154  HOH1154     0.0000
   5566 H1         26.1150   19.2660   14.7520 H     1154  HOH1154     0.0000
   5567 H2         25.0780   18.0090   14.9240 H     1154  HOH1154     0.0000
   5568 O          20.9420   30.6910   13.3360 O.3   1155  HOH1155     0.0000
   5569 H1         21.6010   30.5250   14.0710 H     1155  HOH1155     0.0000
   5570 H2         21.2800   31.4090   12.7300 H     1155  HOH1155     0.0000
   5571 O          26.9910   29.2220   16.4060 O.3   1156  HOH1156     0.0000
   5572 H1         27.8810   29.1260   16.8540 H     1156  HOH1156     0.0000
   5573 H2         27.0780   29.7990   15.5950 H     1156  HOH1156     0.0000
   5574 O          29.7530   30.1650   67.1360 O.3   1157  HOH1157     0.0000
   5575 H1         29.6230   30.7170   66.3110 H     1157  HOH1157     0.0000
   5576 H2         29.3460   30.6280   67.9230 H     1157  HOH1157     0.0000
   5577 O          29.3050   23.1200   67.1330 O.3   1158  HOH1158     0.0000
   5578 H1         29.5840   23.0930   68.0940 H     1158  HOH1158     0.0000
   5579 H2         30.1090   23.0720   66.5420 H     1158  HOH1158     0.0000
   5580 O           6.0120   26.2100   19.7800 O.3   1159  HOH1159     0.0000
   5581 H1          5.7740   25.2560   19.9690 H     1159  HOH1159     0.0000
   5582 H2          5.6350   26.8030   20.4910 H     1159  HOH1159     0.0000
   5583 O           8.9660    5.3210   62.2400 O.3   1160  HOH1160     0.0000
   5584 H1          8.6180    6.2470   62.3900 H     1160  HOH1160     0.0000
   5585 H2          8.3370    4.6510   62.6330 H     1160  HOH1160     0.0000
   5586 O          12.7500   32.2410   55.5550 O.3   1161  HOH1161     0.0000
   5587 H1         11.8110   31.8950   55.5830 H     1161  HOH1161     0.0000
   5588 H2         13.2630   31.8980   56.3400 H     1161  HOH1161     0.0000
   5589 O           3.7770    2.1340   68.3110 O.3   1162  HOH1162     0.0000
   5590 H1          3.3950    2.1630   67.3860 H     1162  HOH1162     0.0000
   5591 H2          3.5080    1.2860   68.7650 H     1162  HOH1162     0.0000
   5592 O          11.0610    9.5710   69.2210 O.3   1163  HOH1163     0.0000
   5593 H1         10.5870    9.0460   68.5120 H     1163  HOH1163     0.0000
   5594 H2         10.4120   10.1600   69.7010 H     1163  HOH1163     0.0000
   5595 O          13.9990    4.2920   17.5580 O.3   1164  HOH1164     0.0000
   5596 H1         13.0960    3.8640   17.6230 H     1164  HOH1164     0.0000
   5597 H2         13.9180    5.1990   17.1470 H     1164  HOH1164     0.0000
   5598 O           5.9250   32.1610   16.8430 O.3   1165  HOH1165     0.0000
   5599 H1          5.1890   32.2240   17.5180 H     1165  HOH1165     0.0000
   5600 H2          5.6000   31.6870   16.0260 H     1165  HOH1165     0.0000
   5601 O          20.0850   14.9230   67.7080 O.3   1166  HOH1166     0.0000
   5602 H1         20.0340   15.5510   68.4860 H     1166  HOH1166     0.0000
   5603 H2         19.3730   14.2260   67.7840 H     1166  HOH1166     0.0000
   5604 O          10.8990   26.1010   57.6090 O.3   1167  HOH1167     0.0000
   5605 H1         11.5800   26.6090   58.1380 H     1167  HOH1167     0.0000
   5606 H2         11.0650   26.2240   56.6310 H     1167  HOH1167     0.0000
   5607 O           5.4920   15.0000    5.1170 O.3   1168  HOH1168     0.0000
   5608 H1          4.7330   14.6070    4.5960 H     1168  HOH1168     0.0000
   5609 H2          6.3530   14.8450    4.6350 H     1168  HOH1168     0.0000
   5610 O          12.3190   26.1560   12.1570 O.3   1169  HOH1169     0.0000
   5611 H1         12.5940   26.7910   11.4330 H     1169  HOH1169     0.0000
   5612 H2         11.6200   25.5290   11.8150 H     1169  HOH1169     0.0000
   5613 O           7.8720   14.4900   69.1400 O.3   1170  HOH1170     0.0000
   5614 H1          7.6900   13.6830   68.5750 H     1170  HOH1170     0.0000
   5615 H2          8.7610   14.4000   69.5890 H     1170  HOH1170     0.0000
   5616 O          15.4810   27.5950   14.9980 O.3   1171  HOH1171     0.0000
   5617 H1         16.2650   27.9330   14.4740 H     1171  HOH1171     0.0000
   5618 H2         15.7670   27.3530   15.9240 H     1171  HOH1171     0.0000
   5619 O           1.5920   13.2970    1.5340 O.3   1172  HOH1172     0.0000
   5620 H1          2.1430   12.4620    1.5510 H     1172  HOH1172     0.0000
   5621 H2          1.0000   13.3310    2.3390 H     1172  HOH1172     0.0000
   5622 O          27.4950   18.5970   58.0380 O.3   1173  HOH1173     0.0000
   5623 H1         27.8390   19.3780   58.5620 H     1173  HOH1173     0.0000
   5624 H2         27.1270   18.9090   57.1630 H     1173  HOH1173     0.0000
   5625 O          23.3680   22.5410   62.6080 O.3   1174  HOH1174     0.0000
   5626 H1         23.0420   23.1790   63.3080 H     1174  HOH1174     0.0000
   5627 H2         24.3660   22.4860   62.6350 H     1174  HOH1174     0.0000
   5628 O          22.8390    9.8650   60.6080 O.3   1175  HOH1175     0.0000
   5629 H1         23.4110   10.6850   60.6500 H     1175  HOH1175     0.0000
   5630 H2         23.3960    9.0510   60.7700 H     1175  HOH1175     0.0000
   5631 O          19.0330   19.8900   20.2870 O.3   1176  HOH1176     0.0000
   5632 H1         18.6140   19.2330   20.9150 H     1176  HOH1176     0.0000
   5633 H2         18.8790   20.8210   20.6130 H     1176  HOH1176     0.0000
   5634 O          16.5170    3.9610   11.2360 O.3   1177  HOH1177     0.0000
   5635 H1         15.7240    4.1510   10.6560 H     1177  HOH1177     0.0000
   5636 H2         16.3100    4.1940   12.1850 H     1177  HOH1177     0.0000
   5637 O          12.8070   15.8900   59.1320 O.3   1178  HOH1178     0.0000
   5638 H1         13.3840   15.1470   59.4750 H     1178  HOH1178     0.0000
   5639 H2         11.8590   15.7440   59.4120 H     1178  HOH1178     0.0000
   5640 O          18.6100    4.1950   67.7040 O.3   1179  HOH1179     0.0000
   5641 H1         18.2020    4.8890   68.3000 H     1179  HOH1179     0.0000
   5642 H2         18.1430    4.1870   66.8200 H     1179  HOH1179     0.0000
   5643 O          30.8330   14.4450   65.3870 O.3   1180  HOH1180     0.0000
   5644 H1         30.0300   14.7250   65.9150 H     1180  HOH1180     0.0000
   5645 H2         30.5500   13.9010   64.5980 H     1180  HOH1180     0.0000
   5646 O          25.2220   18.4130    4.6420 O.3   1181  HOH1181     0.0000
   5647 H1         25.6150   19.2220    4.2020 H     1181  HOH1181     0.0000
   5648 H2         25.1820   18.5470    5.6320 H     1181  HOH1181     0.0000
   5649 O           4.2080   29.8800   14.6630 O.3   1182  HOH1182     0.0000
   5650 H1          4.1070   28.8950   14.5160 H     1182  HOH1182     0.0000
   5651 H2          4.5820   30.3110   13.8440 H     1182  HOH1182     0.0000
   5652 O           5.6010    3.7960   55.2920 O.3   1183  HOH1183     0.0000
   5653 H1          6.3680    3.1530   55.3050 H     1183  HOH1183     0.0000
   5654 H2          5.0400    3.6420   54.4790 H     1183  HOH1183     0.0000
   5655 O          31.7530   27.5030   68.2790 O.3   1184  HOH1184     0.0000
   5656 H1         30.8330   27.8760   68.4030 H     1184  HOH1184     0.0000
   5657 H2         32.4110   28.0280   68.8180 H     1184  HOH1184     0.0000
   5658 O          20.0290   16.8850   15.2800 O.3   1185  HOH1185     0.0000
   5659 H1         20.7220   16.7180   15.9820 H     1185  HOH1185     0.0000
   5660 H2         20.4030   16.6830   14.3750 H     1185  HOH1185     0.0000
   5661 O           8.2220   20.3080   11.0510 O.3   1186  HOH1186     0.0000
   5662 H1          7.2360   20.3550   10.8830 H     1186  HOH1186     0.0000
   5663 H2          8.4490   20.8090   11.8860 H     1186  HOH1186     0.0000
   5664 O           1.3380    4.7530    7.8090 O.3   1187  HOH1187     0.0000
   5665 H1          1.0000    3.8550    7.5240 H     1187  HOH1187     0.0000
   5666 H2          1.8150    4.6760    8.6840 H     1187  HOH1187     0.0000
   5667 O          15.3300    9.7910    1.5720 O.3   1188  HOH1188     0.0000
   5668 H1         14.8650   10.6440    1.3310 H     1188  HOH1188     0.0000
   5669 H2         15.8160    9.8990    2.4380 H     1188  HOH1188     0.0000
   5670 O          29.9840   22.5420    1.2190 O.3   1189  HOH1189     0.0000
   5671 H1         29.6000   21.6420    1.0070 H     1189  HOH1189     0.0000
   5672 H2         29.2780   23.1320    1.6080 H     1189  HOH1189     0.0000
   5673 O          11.3270   11.2700   60.3220 O.3   1190  HOH1190     0.0000
   5674 H1         12.2350   11.5290   59.9880 H     1190  HOH1190     0.0000
   5675 H2         11.4120   10.6050   61.0630 H     1190  HOH1190     0.0000
   5676 O          18.2350   14.0140   22.4950 O.3   1191  HOH1191     0.0000
   5677 H1         17.7680   14.4880   21.7470 H     1191  HOH1191     0.0000
   5678 H2         18.0990   13.0270   22.4120 H     1191  HOH1191     0.0000
   5679 O          18.7550   29.9040   22.0770 O.3   1192  HOH1192     0.0000
   5680 H1         19.4080   30.3800   22.6690 H     1192  HOH1192     0.0000
   5681 H2         18.6920   30.3710   21.1950 H     1192  HOH1192     0.0000
   5682 O           2.6630   21.6850   56.5300 O.3   1193  HOH1193     0.0000
   5683 H1          3.4190   22.1200   56.0380 H     1193  HOH1193     0.0000
   5684 H2          2.9330   21.5000   57.4740 H     1193  HOH1193     0.0000
   5685 O          16.0910    8.3460    6.7910 O.3   1194  HOH1194     0.0000
   5686 H1         16.4450    7.4110    6.8570 H     1194  HOH1194     0.0000
   5687 H2         16.0690    8.6360    5.8350 H     1194  HOH1194     0.0000
   5688 O          22.7050   24.4070   59.2840 O.3   1195  HOH1195     0.0000
   5689 H1         22.9100   25.3870   59.2720 H     1195  HOH1195     0.0000
   5690 H2         22.2200   24.1490   58.4490 H     1195  HOH1195     0.0000
   5691 O          25.8460   22.0960   64.8040 O.3   1196  HOH1196     0.0000
   5692 H1         25.3570   21.4030   64.2730 H     1196  HOH1196     0.0000
   5693 H2         25.2060   22.7890   65.1340 H     1196  HOH1196     0.0000
   5694 O          10.5030   18.0300    2.9710 O.3   1197  HOH1197     0.0000
   5695 H1         10.9860   18.9060    2.9360 H     1197  HOH1197     0.0000
   5696 H2          9.7880   18.0060    2.2730 H     1197  HOH1197     0.0000
   5697 O          26.1650   19.0740   69.2280 O.3   1198  HOH1198     0.0000
   5698 H1         25.2260   19.4210   69.2600 H     1198  HOH1198     0.0000
   5699 H2         26.4540   18.9560   68.2790 H     1198  HOH1198     0.0000
   5700 O           7.4730    5.7980    6.1370 O.3   1199  HOH1199     0.0000
   5701 H1          7.1040    5.1100    6.7630 H     1199  HOH1199     0.0000
   5702 H2          7.3920    5.4790    5.1930 H     1199  HOH1199     0.0000
   5703 O          13.0820   15.1810   18.4880 O.3   1200  HOH1200     0.0000
   5704 H1         12.7610   15.4790   17.5880 H     1200  HOH1200     0.0000
   5705 H2         13.1810   14.1870   18.5040 H     1200  HOH1200     0.0000
   5706 O           5.6840    6.1160    1.9910 O.3   1201  HOH1201     0.0000
   5707 H1          5.7940    6.2080    1.0000 H     1201  HOH1201     0.0000
   5708 H2          5.2460    6.9340    2.3620 H     1201  HOH1201     0.0000
   5709 O          10.3620    4.0410   73.4440 O.3   1202  HOH1202     0.0000
   5710 H1         10.5300    3.4510   72.6530 H     1202  HOH1202     0.0000
   5711 H2         11.1920    4.1190   73.9950 H     1202  HOH1202     0.0000
   5712 O           1.1250   20.0120    7.9680 O.3   1203  HOH1203     0.0000
   5713 H1          1.0000   19.2490    8.6050 H     1203  HOH1203     0.0000
   5714 H2          1.0000   19.6960    7.0290 H     1203  HOH1203     0.0000
   5715 O          32.7310   15.6630   16.3230 O.3   1204  HOH1204     0.0000
   5716 H1         33.2600   14.8230   16.4520 H     1204  HOH1204     0.0000
   5717 H2         33.2580   16.3200   15.7850 H     1204  HOH1204     0.0000
   5718 O          13.9470   10.2430   73.8960 O.3   1205  HOH1205     0.0000
   5719 H1         14.9210   10.3090   73.6740 H     1205  HOH1205     0.0000
   5720 H2         13.5360   11.1540   73.9050 H     1205  HOH1205     0.0000
   5721 O           5.1400   11.4330   64.3850 O.3   1206  HOH1206     0.0000
   5722 H1          5.4650   11.0980   65.2710 H     1206  HOH1206     0.0000
   5723 H2          5.7040   11.0600   63.6500 H     1206  HOH1206     0.0000
   5724 O          24.9640   26.0330   69.6460 O.3   1207  HOH1207     0.0000
   5725 H1         24.2970   26.7610   69.8100 H     1207  HOH1207     0.0000
   5726 H2         25.6770   26.0590   70.3460 H     1207  HOH1207     0.0000
   5727 O          22.5840   32.2440    5.4170 O.3   1208  HOH1208     0.0000
   5728 H1         21.8470   31.7280    5.8570 H     1208  HOH1208     0.0000
   5729 H2         23.4260   31.7060    5.4220 H     1208  HOH1208     0.0000
   5730 O           6.0360   16.5310   72.8860 O.3   1209  HOH1209     0.0000
   5731 H1          5.5540   17.2280   72.3530 H     1209  HOH1209     0.0000
   5732 H2          6.4780   16.9510   73.6770 H     1209  HOH1209     0.0000
   5733 O          19.2320   11.4630    4.5820 O.3   1210  HOH1210     0.0000
   5734 H1         20.2330   11.4830    4.5810 H     1210  HOH1210     0.0000
   5735 H2         18.9020   10.9890    5.3970 H     1210  HOH1210     0.0000
   5736 O          22.0710   31.3150   67.2190 O.3   1211  HOH1211     0.0000
   5737 H1         22.5420   30.8970   67.9970 H     1211  HOH1211     0.0000
   5738 H2         22.4170   32.2410   67.0670 H     1211  HOH1211     0.0000
   5739 O           9.3170   18.2030   21.5640 O.3   1212  HOH1212     0.0000
   5740 H1          8.3840   18.4020   21.2590 H     1212  HOH1212     0.0000
   5741 H2          9.8580   19.0440   21.5770 H     1212  HOH1212     0.0000
   5742 O          31.2200   18.1780   14.8310 O.3   1213  HOH1213     0.0000
   5743 H1         31.2000   17.2840   15.2810 H     1213  HOH1213     0.0000
   5744 H2         31.9590   18.2050   14.1580 H     1213  HOH1213     0.0000
   5745 O          20.5390   24.4390    6.3850 O.3   1214  HOH1214     0.0000
   5746 H1         21.3400   24.3250    6.9740 H     1214  HOH1214     0.0000
   5747 H2         20.7410   25.0910    5.6550 H     1214  HOH1214     0.0000
   5748 O          20.9950    7.9080   61.8420 O.3   1215  HOH1215     0.0000
   5749 H1         21.3120    7.6340   62.7510 H     1215  HOH1215     0.0000
   5750 H2         20.8680    8.8990   61.8080 H     1215  HOH1215     0.0000
   5751 O          32.3590    5.8350    6.1170 O.3   1216  HOH1216     0.0000
   5752 H1         32.2670    6.8070    5.8960 H     1216  HOH1216     0.0000
   5753 H2         33.2610    5.6580    6.5080 H     1216  HOH1216     0.0000
   5754 O          25.1190   31.2840    4.0840 O.3   1217  HOH1217     0.0000
   5755 H1         25.3240   32.1950    3.7210 H     1217  HOH1217     0.0000
   5756 H2         25.5170   31.1820    4.9950 H     1217  HOH1217     0.0000
   5757 O          19.3510   20.1310   56.3710 O.3   1218  HOH1218     0.0000
   5758 H1         18.4320   20.0120   55.9920 H     1218  HOH1218     0.0000
   5759 H2         19.4020   19.7170   57.2790 H     1218  HOH1218     0.0000
   5760 O          23.4400   18.8920   63.2740 O.3   1219  HOH1219     0.0000
   5761 H1         23.8230   18.0950   63.7420 H     1219  HOH1219     0.0000
   5762 H2         24.1700   19.5360   63.0450 H     1219  HOH1219     0.0000
   5763 O          31.3480   30.2250   11.9270 O.3   1220  HOH1220     0.0000
   5764 H1         30.6630   29.5130   11.7650 H     1220  HOH1220     0.0000
   5765 H2         31.6290   30.6320   11.0580 H     1220  HOH1220     0.0000
   5766 O          14.8290   23.4610   16.9980 O.3   1221  HOH1221     0.0000
   5767 H1         14.6220   22.9750   17.8480 H     1221  HOH1221     0.0000
   5768 H2         15.8140   23.6100   16.9200 H     1221  HOH1221     0.0000
   5769 O          30.1270   30.1670   17.7310 O.3   1222  HOH1222     0.0000
   5770 H1         29.5100   29.5840   18.2610 H     1222  HOH1222     0.0000
   5771 H2         30.2850   29.7660   16.8290 H     1222  HOH1222     0.0000
   5772 O          13.0140   18.8180   12.1650 O.3   1223  HOH1223     0.0000
   5773 H1         13.5140   18.9800   11.3130 H     1223  HOH1223     0.0000
   5774 H2         12.3740   18.0610   12.0460 H     1223  HOH1223     0.0000
   5775 O           6.1620   21.9470    2.9920 O.3   1224  HOH1224     0.0000
   5776 H1          6.5290   21.0780    3.3270 H     1224  HOH1224     0.0000
   5777 H2          6.5150   22.1370    2.0770 H     1224  HOH1224     0.0000
   5778 O          14.9140   31.3030   18.4290 O.3   1225  HOH1225     0.0000
   5779 H1         14.4090   32.0240   17.9530 H     1225  HOH1225     0.0000
   5780 H2         15.1040   31.5830   19.3690 H     1225  HOH1225     0.0000
   5781 O          12.9820   24.9340   71.4710 O.3   1226  HOH1226     0.0000
   5782 H1         12.4220   24.1100   71.3820 H     1226  HOH1226     0.0000
   5783 H2         13.5680   25.0380   70.6680 H     1226  HOH1226     0.0000
   5784 O           4.5240   21.4940   66.7760 O.3   1227  HOH1227     0.0000
   5785 H1          5.4740   21.1820   66.8360 H     1227  HOH1227     0.0000
   5786 H2          3.9700   20.8120   66.3010 H     1227  HOH1227     0.0000
   5787 O           7.0750    1.5620   71.6790 O.3   1228  HOH1228     0.0000
   5788 H1          7.0750    2.5300   71.9340 H     1228  HOH1228     0.0000
   5789 H2          7.0960    0.9930   72.5000 H     1228  HOH1228     0.0000
   5790 O          11.7680   30.0940    2.9380 O.3   1229  HOH1229     0.0000
   5791 H1         11.9800   30.0430    3.9150 H     1229  HOH1229     0.0000
   5792 H2         11.0890   30.8080    2.7720 H     1229  HOH1229     0.0000
   5793 O          20.6250   31.2300   61.5890 O.3   1230  HOH1230     0.0000
   5794 H1         20.4410   32.1380   61.2080 H     1230  HOH1230     0.0000
   5795 H2         21.5670   30.9610   61.3910 H     1230  HOH1230     0.0000
   5796 O          29.2110   31.7380    3.4970 O.3   1231  HOH1231     0.0000
   5797 H1         30.0710   32.2400    3.6040 H     1231  HOH1231     0.0000
   5798 H2         29.3220   31.0120    2.8190 H     1231  HOH1231     0.0000
   5799 O           6.2910   13.4530   71.0900 O.3   1232  HOH1232     0.0000
   5800 H1          6.3950   14.3520   71.5190 H     1232  HOH1232     0.0000
   5801 H2          6.1230   13.5600   70.1100 H     1232  HOH1232     0.0000
   5802 O          21.6940   23.4430   10.6670 O.3   1233  HOH1233     0.0000
   5803 H1         21.4940   22.6380   11.2280 H     1233  HOH1233     0.0000
   5804 H2         21.3730   24.2690   11.1280 H     1233  HOH1233     0.0000
   5805 O          13.1830   29.7850   16.7080 O.3   1234  HOH1234     0.0000
   5806 H1         12.2480   29.4780   16.5250 H     1234  HOH1234     0.0000
   5807 H2         13.2790   30.0290   17.6720 H     1234  HOH1234     0.0000
   5808 O          32.9500    5.7690   17.5660 O.3   1235  HOH1235     0.0000
   5809 H1         31.9600    5.8850   17.6600 H     1235  HOH1235     0.0000
   5810 H2         33.2600    5.0060   18.1320 H     1235  HOH1235     0.0000
   5811 O          22.2490   25.3430   61.4550 O.3   1236  HOH1236     0.0000
   5812 H1         22.1220   24.3840   61.7140 H     1236  HOH1236     0.0000
   5813 H2         21.7550   25.9360   62.0890 H     1236  HOH1236     0.0000
   5814 O          26.8740   25.0210   13.3630 O.3   1237  HOH1237     0.0000
   5815 H1         27.0150   25.4380   12.4640 H     1237  HOH1237     0.0000
   5816 H2         26.8500   24.0250   13.2780 H     1237  HOH1237     0.0000
   5817 O          20.0640   31.3080   65.9740 O.3   1238  HOH1238     0.0000
   5818 H1         19.9820   30.7530   66.8040 H     1238  HOH1238     0.0000
   5819 H2         20.3340   32.2400   66.2120 H     1238  HOH1238     0.0000
   5820 O           5.6500   23.4880   12.6480 O.3   1239  HOH1239     0.0000
   5821 H1          6.0100   24.0810   11.9270 H     1239  HOH1239     0.0000
   5822 H2          5.3240   22.6300   12.2530 H     1239  HOH1239     0.0000
   5823 O           6.4200   27.1750   64.7640 O.3   1240  HOH1240     0.0000
   5824 H1          6.1770   28.1420   64.6720 H     1240  HOH1240     0.0000
   5825 H2          7.1390   26.9390   64.1110 H     1240  HOH1240     0.0000
   5826 O          18.6300   31.5620   56.0790 O.3   1241  HOH1241     0.0000
   5827 H1         19.0950   31.9980   56.8510 H     1241  HOH1241     0.0000
   5828 H2         17.6930   31.9020   56.0090 H     1241  HOH1241     0.0000
   5829 O          25.0690    8.3140    7.5100 O.3   1242  HOH1242     0.0000
   5830 H1         24.1450    8.0340    7.2460 H     1242  HOH1242     0.0000
   5831 H2         25.7320    7.9770    6.8420 H     1242  HOH1242     0.0000
   5832 O          24.8940   16.3700    5.7510 O.3   1243  HOH1243     0.0000
   5833 H1         24.6770   15.6820    5.0570 H     1243  HOH1243     0.0000
   5834 H2         25.6550   16.0550    6.3170 H     1243  HOH1243     0.0000
   5835 O           8.9190   12.0170   63.2430 O.3   1244  HOH1244     0.0000
   5836 H1          9.8420   11.9510   63.6250 H     1244  HOH1244     0.0000
   5837 H2          8.3900   12.7010   63.7450 H     1244  HOH1244     0.0000
   5838 O          26.5010    7.8750   73.8180 O.3   1245  HOH1245     0.0000
   5839 H1         27.4690    7.8410   73.5640 H     1245  HOH1245     0.0000
   5840 H2         26.2010    8.8250   73.8930 H     1245  HOH1245     0.0000
   5841 O          14.8800   30.4460   63.7940 O.3   1246  HOH1246     0.0000
   5842 H1         15.3660   29.6320   64.1170 H     1246  HOH1246     0.0000
   5843 H2         14.3910   30.8750   64.5530 H     1246  HOH1246     0.0000
   5844 O           8.7980   14.1630   17.6700 O.3   1247  HOH1247     0.0000
   5845 H1          9.3420   13.6420   17.0110 H     1247  HOH1247     0.0000
   5846 H2          8.9010   13.7710   18.5830 H     1247  HOH1247     0.0000
   5847 O           9.1540   28.1010   70.2550 O.3   1248  HOH1248     0.0000
   5848 H1          9.5290   27.5430   70.9970 H     1248  HOH1248     0.0000
   5849 H2          9.4820   29.0410   70.3360 H     1248  HOH1248     0.0000
   5850 O           8.8920    7.4400   66.7570 O.3   1249  HOH1249     0.0000
   5851 H1          9.5830    8.1640   66.7660 H     1249  HOH1249     0.0000
   5852 H2          8.5550    7.2780   67.6840 H     1249  HOH1249     0.0000
   5853 O          29.5080   19.4450    6.5900 O.3   1250  HOH1250     0.0000
   5854 H1         30.0650   19.2570    7.4010 H     1250  HOH1250     0.0000
   5855 H2         28.6810   18.8840    6.6060 H     1250  HOH1250     0.0000
   5856 O           2.9140    9.8300    3.5930 O.3   1251  HOH1251     0.0000
   5857 H1          3.3760    9.6790    2.7180 H     1251  HOH1251     0.0000
   5858 H2          2.9160   10.8040    3.8170 H     1251  HOH1251     0.0000
   5859 O          24.7350   24.3960   61.6080 O.3   1252  HOH1252     0.0000
   5860 H1         24.1340   24.0070   60.9080 H     1252  HOH1252     0.0000
   5861 H2         24.1900   24.7900   62.3460 H     1252  HOH1252     0.0000
   5862 O          26.3020   24.7750   54.8240 O.3   1253  HOH1253     0.0000
   5863 H1         26.3310   25.5310   54.1670 H     1253  HOH1253     0.0000
   5864 H2         27.0830   24.8320   55.4440 H     1253  HOH1253     0.0000
   5865 O          26.2660   12.2810   53.6630 O.3   1254  HOH1254     0.0000
   5866 H1         26.0410   11.6820   54.4340 H     1254  HOH1254     0.0000
   5867 H2         25.5550   12.2200   52.9650 H     1254  HOH1254     0.0000
   5868 O          13.2540   20.6870   13.3320 O.3   1255  HOH1255     0.0000
   5869 H1         13.2140   19.9690   14.0290 H     1255  HOH1255     0.0000
   5870 H2         12.7370   21.4860   13.6350 H     1255  HOH1255     0.0000
   5871 O          29.2180   30.6310   56.5400 O.3   1256  HOH1256     0.0000
   5872 H1         28.6270   29.9400   56.9580 H     1256  HOH1256     0.0000
   5873 H2         29.3550   30.4230   55.5720 H     1256  HOH1256     0.0000
   5874 O          12.9130   29.7300   56.2130 O.3   1257  HOH1257     0.0000
   5875 H1         12.9080   30.0170   55.2540 H     1257  HOH1257     0.0000
   5876 H2         13.8400   29.7890   56.5810 H     1257  HOH1257     0.0000
   5877 O          22.6890   30.5850   64.4460 O.3   1258  HOH1258     0.0000
   5878 H1         22.0590   30.3240   63.7120 H     1258  HOH1258     0.0000
   5879 H2         22.2660   31.2790   65.0280 H     1258  HOH1258     0.0000
   5880 O           3.6260    4.9370   60.6730 O.3   1259  HOH1259     0.0000
   5881 H1          2.8420    5.5430   60.5310 H     1259  HOH1259     0.0000
   5882 H2          3.9810    5.0480   61.6010 H     1259  HOH1259     0.0000
   5883 O          28.3950   24.1960   74.0160 O.3   1260  HOH1260     0.0000
   5884 H1         29.0850   23.5300   73.7270 H     1260  HOH1260     0.0000
   5885 H2         28.6240   25.1010   73.6600 H     1260  HOH1260     0.0000
   5886 O          14.6260   25.6160   16.6300 O.3   1261  HOH1261     0.0000
   5887 H1         13.8390   25.5850   17.2490 H     1261  HOH1261     0.0000
   5888 H2         14.3140   25.7230   15.6870 H     1261  HOH1261     0.0000
   5889 O           9.6000   16.6610   74.0620 O.3   1262  HOH1262     0.0000
   5890 H1          8.9800   15.8840   73.9390 H     1262  HOH1262     0.0000
   5891 H2         10.4510   16.5010   73.5640 H     1262  HOH1262     0.0000
   5892 O           9.0980   25.4460   71.5060 O.3   1263  HOH1263     0.0000
   5893 H1          9.3930   24.4910   71.5530 H     1263  HOH1263     0.0000
   5894 H2          8.2420   25.5140   70.9950 H     1263  HOH1263     0.0000
   5895 O          15.7930   15.9640   14.1950 O.3   1264  HOH1264     0.0000
   5896 H1         16.4260   15.2750   13.8390 H     1264  HOH1264     0.0000
   5897 H2         15.3400   15.6180   15.0170 H     1264  HOH1264     0.0000
   5898 O          16.6560    8.9040   69.4110 O.3   1265  HOH1265     0.0000
   5899 H1         17.2500    9.6170   69.0360 H     1265  HOH1265     0.0000
   5900 H2         15.9480    8.6660   68.7470 H     1265  HOH1265     0.0000
   5901 O          30.9420   31.3880   58.8200 O.3   1266  HOH1266     0.0000
   5902 H1         31.4200   30.6500   58.3410 H     1266  HOH1266     0.0000
   5903 H2         31.6010   31.9580   59.3100 H     1266  HOH1266     0.0000
   5904 O          23.4390    1.0940   55.6520 O.3   1267  HOH1267     0.0000
   5905 H1         23.6260    2.0100   55.2950 H     1267  HOH1267     0.0000
   5906 H2         23.8240    1.0000   56.5690 H     1267  HOH1267     0.0000
   5907 O          14.7150   17.5070   21.3170 O.3   1268  HOH1268     0.0000
   5908 H1         14.0680   16.8650   20.9020 H     1268  HOH1268     0.0000
   5909 H2         14.2720   18.0040   22.0630 H     1268  HOH1268     0.0000
   5910 O           2.3970   28.2590   10.0660 O.3   1269  HOH1269     0.0000
   5911 H1          3.1700   27.6960    9.7700 H     1269  HOH1269     0.0000
   5912 H2          2.0700   27.9480   10.9580 H     1269  HOH1269     0.0000
   5913 O          26.2360    4.0750   69.8850 O.3   1270  HOH1270     0.0000
   5914 H1         25.6650    4.0840   69.0630 H     1270  HOH1270     0.0000
   5915 H2         26.5390    5.0030   70.0990 H     1270  HOH1270     0.0000
   5916 O          25.5670   14.5370   67.6540 O.3   1271  HOH1271     0.0000
   5917 H1         25.5540   15.4660   67.2810 H     1271  HOH1271     0.0000
   5918 H2         25.9440   14.5460   68.5800 H     1271  HOH1271     0.0000
   5919 O           8.7460   16.0010   11.9220 O.3   1272  HOH1272     0.0000
   5920 H1          9.5730   15.4600   11.7640 H     1272  HOH1272     0.0000
   5921 H2          8.1800   15.5650   12.6210 H     1272  HOH1272     0.0000
   5922 O          14.2280   16.4180    1.5100 O.3   1273  HOH1273     0.0000
   5923 H1         14.3260   15.5630    0.9990 H     1273  HOH1273     0.0000
   5924 H2         14.0590   16.2210    2.4750 H     1273  HOH1273     0.0000
   5925 O           9.1430   10.5160   67.4250 O.3   1274  HOH1274     0.0000
   5926 H1          8.3020   10.4100   66.8930 H     1274  HOH1274     0.0000
   5927 H2          9.9380   10.3300   66.8500 H     1274  HOH1274     0.0000
   5928 O           6.1730   20.1830   72.3740 O.3   1275  HOH1275     0.0000
   5929 H1          5.8920   19.3500   71.8960 H     1275  HOH1275     0.0000
   5930 H2          6.4960   19.9580   73.2930 H     1275  HOH1275     0.0000
   5931 O          28.1520    4.8210   54.8890 O.3   1276  HOH1276     0.0000
   5932 H1         28.6650    4.8410   54.0290 H     1276  HOH1276     0.0000
   5933 H2         28.6470    5.3260   55.5940 H     1276  HOH1276     0.0000
   5934 O          11.1190    8.1550   61.8400 O.3   1277  HOH1277     0.0000
   5935 H1         10.3410    7.5860   62.1090 H     1277  HOH1277     0.0000
   5936 H2         11.5070    7.8210   60.9820 H     1277  HOH1277     0.0000
   5937 O          22.2860    4.4910   65.7640 O.3   1278  HOH1278     0.0000
   5938 H1         22.9730    4.1170   66.3890 H     1278  HOH1278     0.0000
   5939 H2         22.6520    4.5230   64.8350 H     1278  HOH1278     0.0000
   5940 O          12.8570    5.8100   69.1110 O.3   1279  HOH1279     0.0000
   5941 H1         12.8680    4.8100   69.0630 H     1279  HOH1279     0.0000
   5942 H2         13.7920    6.1610   69.1550 H     1279  HOH1279     0.0000
   5943 O          25.5040   22.1840   59.6320 O.3   1280  HOH1280     0.0000
   5944 H1         24.7840   22.7480   59.2250 H     1280  HOH1280     0.0000
   5945 H2         25.6970   22.4960   60.5620 H     1280  HOH1280     0.0000
   5946 O           5.8920   32.2400    9.0830 O.3   1281  HOH1281     0.0000
   5947 H1          6.8350   31.9120    9.0180 H     1281  HOH1281     0.0000
   5948 H2          5.5680   32.1650   10.0250 H     1281  HOH1281     0.0000
   5949 O          10.6670   22.2440   69.6860 O.3   1282  HOH1282     0.0000
   5950 H1         10.3810   23.0290   70.2380 H     1282  HOH1282     0.0000
   5951 H2          9.9220   21.5810   69.6260 H     1282  HOH1282     0.0000
   5952 O          30.8900   21.6810   60.6300 O.3   1283  HOH1283     0.0000
   5953 H1         31.3490   20.8320   60.8930 H     1283  HOH1283     0.0000
   5954 H2         31.5640   22.3560   60.3310 H     1283  HOH1283     0.0000
   5955 O          20.1020   13.9080    8.3050 O.3   1284  HOH1284     0.0000
   5956 H1         21.0910   14.0140    8.4200 H     1284  HOH1284     0.0000
   5957 H2         19.8030   14.3780    7.4760 H     1284  HOH1284     0.0000
   5958 O          18.8240   17.0720   65.9090 O.3   1285  HOH1285     0.0000
   5959 H1         19.3400   17.9090   65.7210 H     1285  HOH1285     0.0000
   5960 H2         19.1290   16.6690   66.7710 H     1285  HOH1285     0.0000
   5961 O          23.4000   13.2030    1.2490 O.3   1286  HOH1286     0.0000
   5962 H1         22.8680   14.0510    1.2540 H     1286  HOH1286     0.0000
   5963 H2         22.8140   12.4330    1.0000 H     1286  HOH1286     0.0000
   5964 O          24.3370    6.4420   20.6740 O.3   1287  HOH1287     0.0000
   5965 H1         23.3440    6.4040   20.7930 H     1287  HOH1287     0.0000
   5966 H2         24.6200    5.8040   19.9580 H     1287  HOH1287     0.0000
   5967 O          15.2010   18.3430   72.8630 O.3   1288  HOH1288     0.0000
   5968 H1         15.7490   18.0730   73.6560 H     1288  HOH1288     0.0000
   5969 H2         15.7670   18.3430   72.0400 H     1288  HOH1288     0.0000
   5970 O           8.6200   30.8710   56.6200 O.3   1289  HOH1289     0.0000
   5971 H1          9.1670   31.6030   57.0290 H     1289  HOH1289     0.0000
   5972 H2          8.4760   31.0550   55.6480 H     1289  HOH1289     0.0000
   5973 O          26.8200   18.0400   54.9420 O.3   1290  HOH1290     0.0000
   5974 H1         26.0680   18.6200   55.2570 H     1290  HOH1290     0.0000
   5975 H2         27.1730   18.3800   54.0710 H     1290  HOH1290     0.0000
   5976 O           9.7040   13.4700   67.7150 O.3   1291  HOH1291     0.0000
   5977 H1         10.4250   13.2750   67.0480 H     1291  HOH1291     0.0000
   5978 H2          9.7240   12.7910   68.4480 H     1291  HOH1291     0.0000
   5979 O          33.2580   18.5930   17.0300 O.3   1292  HOH1292     0.0000
   5980 H1         33.2440   19.5650   17.2680 H     1292  HOH1292     0.0000
   5981 H2         33.0140   18.4720   16.0690 H     1292  HOH1292     0.0000
   5982 O          29.8580   11.1920   70.6190 O.3   1293  HOH1293     0.0000
   5983 H1         29.7830   10.1950   70.5680 H     1293  HOH1293     0.0000
   5984 H2         30.8090   11.4700   70.4910 H     1293  HOH1293     0.0000
   5985 O          16.0700    1.5260    4.6820 O.3   1294  HOH1294     0.0000
   5986 H1         16.9050    1.0000    4.8470 H     1294  HOH1294     0.0000
   5987 H2         16.1120    1.9580    3.7810 H     1294  HOH1294     0.0000
   5988 O           4.3330   21.3110   22.0290 O.3   1295  HOH1295     0.0000
   5989 H1          5.0870   21.8300   21.6240 H     1295  HOH1295     0.0000
   5990 H2          4.6410   20.3910   22.2680 H     1295  HOH1295     0.0000
   5991 O           3.7430   13.5430   66.3010 O.3   1296  HOH1296     0.0000
   5992 H1          3.7790   12.5780   66.5650 H     1296  HOH1296     0.0000
   5993 H2          3.2040   14.0600   66.9650 H     1296  HOH1296     0.0000
   5994 O          19.6470   28.8250    2.2670 O.3   1297  HOH1297     0.0000
   5995 H1         20.4500   28.3530    1.9010 H     1297  HOH1297     0.0000
   5996 H2         19.8620   29.7880    2.4310 H     1297  HOH1297     0.0000
   5997 O          22.4400   28.0500   62.0890 O.3   1298  HOH1298     0.0000
   5998 H1         22.0480   28.8230   61.5890 H     1298  HOH1298     0.0000
   5999 H2         22.6720   28.3280   63.0200 H     1298  HOH1298     0.0000
   6000 O          18.9380    3.0340   10.7040 O.3   1299  HOH1299     0.0000
   6001 H1         19.0770    2.0570   10.5400 H     1299  HOH1299     0.0000
   6002 H2         19.7450    3.5470   10.4140 H     1299  HOH1299     0.0000
   6003 O          32.2770   12.6270   17.0880 O.3   1300  HOH1300     0.0000
   6004 H1         31.8290   12.8350   17.9590 H     1300  HOH1300     0.0000
   6005 H2         33.2650   12.7480   17.1750 H     1300  HOH1300     0.0000
   6006 O          32.3620   29.4120   15.9830 O.3   1301  HOH1301     0.0000
   6007 H1         31.9240   28.5210   15.8550 H     1301  HOH1301     0.0000
   6008 H2         33.1850   29.4730   15.4190 H     1301  HOH1301     0.0000
   6009 O          25.0280    3.0690   72.4790 O.3   1302  HOH1302     0.0000
   6010 H1         25.2420    2.3310   71.8370 H     1302  HOH1302     0.0000
   6011 H2         24.6050    2.6930   73.3030 H     1302  HOH1302     0.0000
   6012 O          10.9080   29.1190   55.0710 O.3   1303  HOH1303     0.0000
   6013 H1         10.5400   28.2640   54.7040 H     1303  HOH1303     0.0000
   6014 H2         10.1720   29.6650   55.4700 H     1303  HOH1303     0.0000
   6015 O           1.0020   22.3240   59.6600 O.3   1304  HOH1304     0.0000
   6016 H1          1.2280   23.2980   59.6140 H     1304  HOH1304     0.0000
   6017 H2          1.5530   21.8780   60.3640 H     1304  HOH1304     0.0000
   6018 O          20.6840   23.0780   69.2940 O.3   1305  HOH1305     0.0000
   6019 H1         21.0230   23.4040   68.4100 H     1305  HOH1305     0.0000
   6020 H2         21.4120   23.1220   69.9770 H     1305  HOH1305     0.0000
   6021 O          24.5420   24.7930   64.5180 O.3   1306  HOH1306     0.0000
   6022 H1         23.6450   24.6410   64.9370 H     1306  HOH1306     0.0000
   6023 H2         24.9120   25.6730   64.8140 H     1306  HOH1306     0.0000
   6024 O          23.2380   15.8290   62.4730 O.3   1307  HOH1307     0.0000
   6025 H1         24.0660   15.4530   62.8900 H     1307  HOH1307     0.0000
   6026 H2         23.4510   16.2110   61.5740 H     1307  HOH1307     0.0000
   6027 O          31.8000   22.4710   70.8890 O.3   1308  HOH1308     0.0000
   6028 H1         32.6000   21.9900   71.2500 H     1308  HOH1308     0.0000
   6029 H2         31.9920   22.8100   69.9680 H     1308  HOH1308     0.0000
   6030 O          13.2410   14.1880   11.4700 O.3   1309  HOH1309     0.0000
   6031 H1         13.8220   13.4230   11.7520 H     1309  HOH1309     0.0000
   6032 H2         12.2890   14.0000   11.7100 H     1309  HOH1309     0.0000
   6033 O           7.8950   20.9680   22.5940 O.3   1310  HOH1310     0.0000
   6034 H1          8.1750   20.0210   22.7600 H     1310  HOH1310     0.0000
   6035 H2          7.3040   21.0130   21.7890 H     1310  HOH1310     0.0000
   6036 O          14.8100   26.3760    1.4120 O.3   1311  HOH1311     0.0000
   6037 H1         13.9000   26.3110    0.9990 H     1311  HOH1311     0.0000
   6038 H2         15.2790   27.1920    1.0770 H     1311  HOH1311     0.0000
   6039 O          13.9400    3.7240    2.5640 O.3   1312  HOH1312     0.0000
   6040 H1         13.4770    3.1350    1.8990 H     1312  HOH1312     0.0000
   6041 H2         14.6300    4.2810    2.1040 H     1312  HOH1312     0.0000
   6042 O          30.2910   14.3780   18.2660 O.3   1313  HOH1313     0.0000
   6043 H1         29.5770   13.7160   18.5000 H     1313  HOH1313     0.0000
   6044 H2         30.3980   14.4290   17.2740 H     1313  HOH1313     0.0000
   6045 O          17.5900   28.7150   63.5580 O.3   1314  HOH1314     0.0000
   6046 H1         18.4520   28.3660   63.9280 H     1314  HOH1314     0.0000
   6047 H2         17.5040   28.4620   62.5950 H     1314  HOH1314     0.0000
   6048 O          14.2880   14.5330    9.1120 O.3   1315  HOH1315     0.0000
   6049 H1         14.5550   15.0470    9.9290 H     1315  HOH1315     0.0000
   6050 H2         15.0430   14.5190    8.4570 H     1315  HOH1315     0.0000
   6051 O           9.7390   29.7300   67.6630 O.3   1316  HOH1316     0.0000
   6052 H1         10.1590   30.0510   68.5130 H     1316  HOH1316     0.0000
   6053 H2         10.0770   30.2670   66.8910 H     1316  HOH1316     0.0000
   6054 O           6.0460    1.6710   69.6880 O.3   1317  HOH1317     0.0000
   6055 H1          6.5130    2.5510   69.7880 H     1317  HOH1317     0.0000
   6056 H2          6.5640    1.0780   69.0730 H     1317  HOH1317     0.0000
   6057 O           1.6680   19.5980   58.0700 O.3   1318  HOH1318     0.0000
   6058 H1          1.0000   19.0720   58.5970 H     1318  HOH1318     0.0000
   6059 H2          1.5740   19.3910   57.0970 H     1318  HOH1318     0.0000
   6060 O          24.1060   16.9710    8.1680 O.3   1319  HOH1319     0.0000
   6061 H1         24.6770   17.6920    7.7720 H     1319  HOH1319     0.0000
   6062 H2         24.4130   16.7640    9.0960 H     1319  HOH1319     0.0000
   6063 O          12.3110   30.5250   65.1800 O.3   1320  HOH1320     0.0000
   6064 H1         12.5810   29.6080   65.4800 H     1320  HOH1320     0.0000
   6065 H2         12.3460   31.1600   65.9500 H     1320  HOH1320     0.0000
   6066 O          32.3120    8.8230    8.3280 O.3   1321  HOH1321     0.0000
   6067 H1         33.2640    8.6200    8.5620 H     1321  HOH1321     0.0000
   6068 H2         31.9010    9.3980    9.0350 H     1321  HOH1321     0.0000
   6069 O           5.2580    8.8580   73.9540 O.3   1322  HOH1322     0.0000
   6070 H1          5.6950    8.0500   73.5560 H     1322  HOH1322     0.0000
   6071 H2          5.0100    9.5020   73.2310 H     1322  HOH1322     0.0000
   6072 O          24.8840    2.3890   23.0270 O.3   1323  HOH1323     0.0000
   6073 H1         24.6590    3.2870   22.6460 H     1323  HOH1323     0.0000
   6074 H2         24.5470    2.3230   23.9650 H     1323  HOH1323     0.0000
   6075 O          22.2840    1.8960   70.2400 O.3   1324  HOH1324     0.0000
   6076 H1         21.8510    2.7930   70.1420 H     1324  HOH1324     0.0000
   6077 H2         22.7300    1.8280   71.1320 H     1324  HOH1324     0.0000
   6078 O           8.5870   12.8330   65.9260 O.3   1325  HOH1325     0.0000
   6079 H1          7.9690   12.6040   66.6800 H     1325  HOH1325     0.0000
   6080 H2          9.1730   12.0520   65.7160 H     1325  HOH1325     0.0000
   6081 O          14.2290   12.6750    1.9040 O.3   1326  HOH1326     0.0000
   6082 H1         14.3860   13.6480    2.0800 H     1326  HOH1326     0.0000
   6083 H2         13.8230   12.5530    0.9990 H     1326  HOH1326     0.0000
   6084 O          23.3090   20.3370    8.5570 O.3   1327  HOH1327     0.0000
   6085 H1         23.3920   19.3690    8.7990 H     1327  HOH1327     0.0000
   6086 H2         24.2090   20.7130    8.3370 H     1327  HOH1327     0.0000
   6087 O          15.8010   30.2290   61.1640 O.3   1328  HOH1328     0.0000
   6088 H1         16.5120   30.3250   60.4670 H     1328  HOH1328     0.0000
   6089 H2         16.2170   30.1670   62.0710 H     1328  HOH1328     0.0000
   6090 O          14.8020   22.0130   74.0000 O.3   1329  HOH1329     0.0000
   6091 H1         14.1200   22.7250   73.8270 H     1329  HOH1329     0.0000
   6092 H2         14.5730   21.1890   73.4840 H     1329  HOH1329     0.0000
   6093 O          14.3940   26.5510   57.3930 O.3   1330  HOH1330     0.0000
   6094 H1         14.5040   27.4150   57.8870 H     1330  HOH1330     0.0000
   6095 H2         13.6780   26.0020   57.8220 H     1330  HOH1330     0.0000
   6096 O          26.4260   27.4790   73.9920 O.3   1331  HOH1331     0.0000
   6097 H1         26.7190   28.1300   73.2900 H     1331  HOH1331     0.0000
   6098 H2         25.4290   27.4120   74.0000 H     1331  HOH1331     0.0000
   6099 O          17.2610   14.8480   68.3620 O.3   1332  HOH1332     0.0000
   6100 H1         16.3240   14.9500   68.6990 H     1332  HOH1332     0.0000
   6101 H2         17.8910   15.3670   68.9400 H     1332  HOH1332     0.0000
   6102 O          21.0630   24.9490   21.8300 O.3   1333  HOH1333     0.0000
   6103 H1         21.3300   24.3080   22.5510 H     1333  HOH1333     0.0000
   6104 H2         21.5210   24.7110   20.9750 H     1333  HOH1333     0.0000
   6105 O          30.6600   28.4030    2.4880 O.3   1334  HOH1334     0.0000
   6106 H1         30.6890   29.2930    2.9440 H     1334  HOH1334     0.0000
   6107 H2         31.0830   27.7080    3.0690 H     1334  HOH1334     0.0000
   6108 O           8.4020    1.7190   55.8940 O.3   1335  HOH1335     0.0000
   6109 H1          9.3540    1.4410   55.7560 H     1335  HOH1335     0.0000
   6110 H2          7.7860    1.0000   55.5760 H     1335  HOH1335     0.0000
   6111 O           4.1010    6.1310   73.9580 O.3   1336  HOH1336     0.0000
   6112 H1          3.7740    7.0760   74.0000 H     1336  HOH1336     0.0000
   6113 H2          3.6480    5.6450   73.2120 H     1336  HOH1336     0.0000
   6114 O           9.8120   10.0960   10.0930 O.3   1337  HOH1337     0.0000
   6115 H1         10.0020    9.4430   10.8280 H     1337  HOH1337     0.0000
   6116 H2         10.4910   10.0000    9.3670 H     1337  HOH1337     0.0000
   6117 O          24.3060    7.0060    3.0000 O.3   1338  HOH1338     0.0000
   6118 H1         23.3760    6.6440    3.0770 H     1338  HOH1338     0.0000
   6119 H2         24.9670    6.3200    3.3030 H     1338  HOH1338     0.0000
   6120 O           3.8560   26.1080   73.9970 O.3   1339  HOH1339     0.0000
   6121 H1          3.5960   25.3450   73.4050 H     1339  HOH1339     0.0000
   6122 H2          3.8800   26.9570   73.4700 H     1339  HOH1339     0.0000
   6123 O          27.3230   27.0900   59.3870 O.3   1340  HOH1340     0.0000
   6124 H1         28.0070   26.3600   59.4180 H     1340  HOH1340     0.0000
   6125 H2         27.4520   27.6450   58.5660 H     1340  HOH1340     0.0000
   6126 O          25.7240   20.1040    9.9860 O.3   1341  HOH1341     0.0000
   6127 H1         24.9800   19.6120   10.4390 H     1341  HOH1341     0.0000
   6128 H2         25.5600   21.0880   10.0300 H     1341  HOH1341     0.0000
   6129 O          21.5450    3.2400    5.5800 O.3   1342  HOH1342     0.0000
   6130 H1         20.9770    2.8670    6.3160 H     1342  HOH1342     0.0000
   6131 H2         22.4210    3.5490    5.9490 H     1342  HOH1342     0.0000
   6132 O          26.7730    4.9510   20.9610 O.3   1343  HOH1343     0.0000
   6133 H1         25.8960    4.5650   21.2530 H     1343  HOH1343     0.0000
   6134 H2         27.0120    4.6070   20.0540 H     1343  HOH1343     0.0000
   6135 O          18.8920   11.2920   67.5080 O.3   1344  HOH1344     0.0000
   6136 H1         19.2340   11.0450   68.4160 H     1344  HOH1344     0.0000
   6137 H2         19.3590   12.1130   67.1790 H     1344  HOH1344     0.0000
   6138 O          27.8710   12.7390    3.0560 O.3   1345  HOH1345     0.0000
   6139 H1         27.0150   13.0770    3.4500 H     1345  HOH1345     0.0000
   6140 H2         28.2800   13.4410    2.4760 H     1345  HOH1345     0.0000
   6141 O          12.7350   10.3780   57.7850 O.3   1346  HOH1346     0.0000
   6142 H1         13.0350    9.5130   58.1900 H     1346  HOH1346     0.0000
   6143 H2         13.3830   11.1040   58.0120 H     1346  HOH1346     0.0000
   6144 O           1.6470   14.2520   18.6050 O.3   1347  HOH1347     0.0000
   6145 H1          2.5340   13.9000   18.3030 H     1347  HOH1347     0.0000
   6146 H2          1.2460   14.8260   17.8920 H     1347  HOH1347     0.0000
   6147 O          19.6000   23.1990   74.0460 O.3   1348  HOH1348     0.0000
   6148 H1         19.4670   22.2460   73.7680 H     1348  HOH1348     0.0000
   6149 H2         18.7410   23.7020   73.9630 H     1348  HOH1348     0.0000
   6150 O          17.6150   15.6270   12.0210 O.3   1349  HOH1349     0.0000
   6151 H1         18.4890   15.2400   12.3180 H     1349  HOH1349     0.0000
   6152 H2         17.7450   16.1690   11.1920 H     1349  HOH1349     0.0000
   6153 O          25.2950   10.3050   66.4450 O.3   1350  HOH1350     0.0000
   6154 H1         24.9300   11.1890   66.7410 H     1350  HOH1350     0.0000
   6155 H2         25.7500    9.8500   67.2100 H     1350  HOH1350     0.0000
   6156 O           5.4670   30.2140   72.1260 O.3   1351  HOH1351     0.0000
   6157 H1          4.5030   30.0010   71.9600 H     1351  HOH1351     0.0000
   6158 H2          6.0490   29.5340   71.6820 H     1351  HOH1351     0.0000
   6159 O          30.3240   23.9790    3.7700 O.3   1352  HOH1352     0.0000
   6160 H1         30.8460   23.3800    3.1600 H     1352  HOH1352     0.0000
   6161 H2         29.9020   23.4400    4.4980 H     1352  HOH1352     0.0000
   6162 O           8.9690    8.2590   71.7060 O.3   1353  HOH1353     0.0000
   6163 H1          9.6400    7.6500   72.1330 H     1353  HOH1353     0.0000
   6164 H2          8.0860    8.1670   72.1640 H     1353  HOH1353     0.0000
   6165 O          23.4010   27.2300   65.1790 O.3   1354  HOH1354     0.0000
   6166 H1         22.9940   26.6830   64.4460 H     1354  HOH1354     0.0000
   6167 H2         22.8480   27.1550   66.0080 H     1354  HOH1354     0.0000
   6168 O          19.0580   26.2660   62.9990 O.3   1355  HOH1355     0.0000
   6169 H1         18.0710   26.3520   62.8590 H     1355  HOH1355     0.0000
   6170 H2         19.5110   26.0830   62.1270 H     1355  HOH1355     0.0000
   6171 O          22.0730   27.3980    3.0370 O.3   1356  HOH1356     0.0000
   6172 H1         22.8750   27.9540    2.8140 H     1356  HOH1356     0.0000
   6173 H2         22.2040   26.9470    3.9190 H     1356  HOH1356     0.0000
   6174 O           1.7220    3.1970   68.5010 O.3   1357  HOH1357     0.0000
   6175 H1          1.0000    3.8710   68.6670 H     1357  HOH1357     0.0000
   6176 H2          1.9120    2.6870   69.3390 H     1357  HOH1357     0.0000
   6177 O           7.7940   28.4670    1.1130 O.3   1358  HOH1358     0.0000
   6178 H1          6.8450   28.1700    1.0000 H     1358  HOH1358     0.0000
   6179 H2          8.3090   27.7780    1.6200 H     1358  HOH1358     0.0000
   6180 O          24.4970    2.4710    4.4150 O.3   1359  HOH1359     0.0000
   6181 H1         24.2480    1.6370    3.9210 H     1359  HOH1359     0.0000
   6182 H2         24.4510    2.3120    5.4000 H     1359  HOH1359     0.0000
   6183 O          31.6940    9.6080    2.7690 O.3   1360  HOH1360     0.0000
   6184 H1         32.5010    9.1780    2.3620 H     1360  HOH1360     0.0000
   6185 H2         31.5370    9.2410    3.6850 H     1360  HOH1360     0.0000
   6186 O           1.8950   21.4320   17.2020 O.3   1361  HOH1361     0.0000
   6187 H1          1.8840   22.1550   16.5090 H     1361  HOH1361     0.0000
   6188 H2          2.7230   21.5040   17.7560 H     1361  HOH1361     0.0000
   6189 O          27.6280   15.6020    3.8600 O.3   1362  HOH1362     0.0000
   6190 H1         26.6450   15.7540    3.7470 H     1362  HOH1362     0.0000
   6191 H2         28.1410   16.3150    3.3830 H     1362  HOH1362     0.0000
   6192 O          30.3770   20.3140   69.4930 O.3   1363  HOH1363     0.0000
   6193 H1         30.3300   20.9630   70.2540 H     1363  HOH1363     0.0000
   6194 H2         30.7100   19.4300   69.8190 H     1363  HOH1363     0.0000
   6195 O          25.2060   13.5930   59.2580 O.3   1364  HOH1364     0.0000
   6196 H1         24.4880   14.1750   58.8730 H     1364  HOH1364     0.0000
   6197 H2         25.4300   13.8950   60.1830 H     1364  HOH1364     0.0000
   6198 O           1.4890   22.6870    7.6460 O.3   1365  HOH1365     0.0000
   6199 H1          1.6030   22.0720    6.8640 H     1365  HOH1365     0.0000
   6200 H2          0.9990   22.2190    8.3800 H     1365  HOH1365     0.0000
   6201 O          24.2210   14.5540   70.5350 O.3   1366  HOH1366     0.0000
   6202 H1         25.1170   15.0000   70.5690 H     1366  HOH1366     0.0000
   6203 H2         23.9830   14.1960   71.4370 H     1366  HOH1366     0.0000
   6204 O           5.5030    1.9010   14.8900 O.3   1367  HOH1367     0.0000
   6205 H1          5.6130    1.0000   15.3120 H     1367  HOH1367     0.0000
   6206 H2          4.9860    2.5020   15.4980 H     1367  HOH1367     0.0000
   6207 O          13.8060   20.9040   67.2800 O.3   1368  HOH1368     0.0000
   6208 H1         12.9230   21.1190   66.8610 H     1368  HOH1368     0.0000
   6209 H2         13.8090   21.1910   68.2370 H     1368  HOH1368     0.0000
   6210 O          21.4160   28.7790   16.0640 O.3   1369  HOH1369     0.0000
   6211 H1         21.6440   28.4190   16.9700 H     1369  HOH1369     0.0000
   6212 H2         21.5010   28.0570   15.3780 H     1369  HOH1369     0.0000
   6213 O          28.0690    0.9990   60.7800 O.3   1370  HOH1370     0.0000
   6214 H1         28.7560    1.6230   60.4060 H     1370  HOH1370     0.0000
   6215 H2         27.2390    1.0310   60.2230 H     1370  HOH1370     0.0000
   6216 O           5.6370    3.4940   52.1260 O.3   1371  HOH1371     0.0000
   6217 H1          6.2800    4.0560   52.6480 H     1371  HOH1371     0.0000
   6218 H2          4.6990    3.7870   52.3100 H     1371  HOH1371     0.0000
   6219 O          13.8300   28.4770   62.9470 O.3   1372  HOH1372     0.0000
   6220 H1         14.4000   28.9390   62.2660 H     1372  HOH1372     0.0000
   6221 H2         13.1810   29.1240   63.3460 H     1372  HOH1372     0.0000
   6222 O          18.6920    3.4980    7.6030 O.3   1373  HOH1373     0.0000
   6223 H1         19.0230    2.6030    7.3010 H     1373  HOH1373     0.0000
   6224 H2         18.5210    3.4840    8.5880 H     1373  HOH1373     0.0000
   6225 O           5.8090    1.1260   57.7780 O.3   1374  HOH1374     0.0000
   6226 H1          6.6310    1.5280   57.3720 H     1374  HOH1374     0.0000
   6227 H2          5.0270    1.7320   57.6370 H     1374  HOH1374     0.0000
   6228 O          20.4930   22.7210   14.1760 O.3   1375  HOH1375     0.0000
   6229 H1         21.2630   22.3750   14.7150 H     1375  HOH1375     0.0000
   6230 H2         20.5340   22.3540   13.2480 H     1375  HOH1375     0.0000
   6231 O          24.2950   14.5500    2.9220 O.3   1376  HOH1376     0.0000
   6232 H1         25.1310   14.2070    3.3540 H     1376  HOH1376     0.0000
   6233 H2         24.3120   15.5480    2.8910 H     1376  HOH1376     0.0000
   6234 O          30.0870    8.9780    0.9950 O.3   1377  HOH1377     0.0000
   6235 H1         30.4220    9.9210    1.0020 H     1377  HOH1377     0.0000
   6236 H2         30.8390    8.3470    1.1830 H     1377  HOH1377     0.0000
   6237 O          14.3700   31.8370   61.6800 O.3   1378  HOH1378     0.0000
   6238 H1         13.8260   30.9990   61.7500 H     1378  HOH1378     0.0000
   6239 H2         14.4910   32.2420   62.5850 H     1378  HOH1378     0.0000
   6240 O           7.6360   13.7990    6.3250 O.3   1379  HOH1379     0.0000
   6241 H1          6.9380   13.0830    6.2760 H     1379  HOH1379     0.0000
   6242 H2          7.9100   13.9440    7.2750 H     1379  HOH1379     0.0000
   6243 O          12.7920    8.0450   68.5790 O.3   1380  HOH1380     0.0000
   6244 H1         13.1990    7.7160   67.7260 H     1380  HOH1380     0.0000
   6245 H2         13.3760    8.7470   68.9870 H     1380  HOH1380     0.0000
   6246 O          32.9560   12.0100    2.6800 O.3   1381  HOH1381     0.0000
   6247 H1         33.0390   12.0200    1.6820 H     1381  HOH1381     0.0000
   6248 H2         33.2610   11.1280    3.0390 H     1381  HOH1381     0.0000
   6249 O          17.1750   11.9810    0.9980 O.3   1382  HOH1382     0.0000
   6250 H1         17.7430   11.1560    1.0000 H     1382  HOH1382     0.0000
   6251 H2         17.7540   12.7950    1.0190 H     1382  HOH1382     0.0000
   6252 O          24.7910   30.2990   60.8970 O.3   1383  HOH1383     0.0000
   6253 H1         23.9610   29.8730   61.2610 H     1383  HOH1383     0.0000
   6254 H2         24.6290   30.6240   59.9660 H     1383  HOH1383     0.0000
   6255 O          30.6250   20.7800   67.2950 O.3   1384  HOH1384     0.0000
   6256 H1         29.6400   20.9490   67.2350 H     1384  HOH1384     0.0000
   6257 H2         30.9210   20.2110   66.5290 H     1384  HOH1384     0.0000
   6258 O          15.4870    4.4250   15.8130 O.3   1385  HOH1385     0.0000
   6259 H1         15.2340    3.6350   15.2530 H     1385  HOH1385     0.0000
   6260 H2         16.0070    5.0790   15.2650 H     1385  HOH1385     0.0000
   6261 O          21.3950   11.4410   59.0590 O.3   1386  HOH1386     0.0000
   6262 H1         22.1710   10.9010   58.7300 H     1386  HOH1386     0.0000
   6263 H2         21.2760   11.3060   60.0420 H     1386  HOH1386     0.0000
   6264 O           6.9280   21.1830   14.2180 O.3   1387  HOH1387     0.0000
   6265 H1          7.8570   21.1350   14.5880 H     1387  HOH1387     0.0000
   6266 H2          6.9460   21.5730   13.2980 H     1387  HOH1387     0.0000
   6267 O           1.3810   17.7760   54.2890 O.3   1388  HOH1388     0.0000
   6268 H1          1.0300   16.9200   53.9060 H     1388  HOH1388     0.0000
   6269 H2          1.0000   17.9250   55.2000 H     1388  HOH1388     0.0000
   6270 O          13.5070    9.4320   52.4320 O.3   1389  HOH1389     0.0000
   6271 H1         13.1910   10.0310   53.1690 H     1389  HOH1389     0.0000
   6272 H2         12.7330    9.1510   51.8650 H     1389  HOH1389     0.0000
   6273 O           6.8270   12.2180   57.9360 O.3   1390  HOH1390     0.0000
   6274 H1          6.8780   11.2190   57.9800 H     1390  HOH1390     0.0000
   6275 H2          7.7250   12.6140   58.1230 H     1390  HOH1390     0.0000
   6276 O          30.3040   20.1280   64.0390 O.3   1391  HOH1391     0.0000
   6277 H1         30.9350   20.8100   64.4130 H     1391  HOH1391     0.0000
   6278 H2         29.6810   19.8110   64.7530 H     1391  HOH1391     0.0000
   6279 O          16.9370    1.1170    9.8710 O.3   1392  HOH1392     0.0000
   6280 H1         17.6800    0.9980    9.2110 H     1392  HOH1392     0.0000
   6281 H2         16.9070    2.0660   10.1830 H     1392  HOH1392     0.0000
   6282 O          29.6740   26.8430    8.1610 O.3   1393  HOH1393     0.0000
   6283 H1         29.3320   27.6510    7.6790 H     1393  HOH1393     0.0000
   6284 H2         29.3680   26.8570    9.1120 H     1393  HOH1393     0.0000
   6285 O          26.3300    2.3110    3.0060 O.3   1394  HOH1394     0.0000
   6286 H1         27.1390    2.5490    2.4670 H     1394  HOH1394     0.0000
   6287 H2         26.5480    1.5700    3.6400 H     1394  HOH1394     0.0000
   6288 O          16.1420    8.3400    9.4980 O.3   1395  HOH1395     0.0000
   6289 H1         16.8900    8.2580    8.8370 H     1395  HOH1395     0.0000
   6290 H2         15.6320    7.4820    9.5440 H     1395  HOH1395     0.0000
   6291 O          20.6200   28.7110   21.3100 O.3   1396  HOH1396     0.0000
   6292 H1         20.5810   27.9050   20.7180 H     1396  HOH1396     0.0000
   6293 H2         20.3990   28.4540   22.2510 H     1396  HOH1396     0.0000
   6294 O           8.3700   27.3390   66.0230 O.3   1397  HOH1397     0.0000
   6295 H1          8.1840   28.2120   65.5700 H     1397  HOH1397     0.0000
   6296 H2          8.5610   27.4900   66.9920 H     1397  HOH1397     0.0000
   6297 O           7.9410   13.4390   20.6540 O.3   1398  HOH1398     0.0000
   6298 H1          8.7610   12.8680   20.5840 H     1398  HOH1398     0.0000
   6299 H2          7.5260   13.3320   21.5560 H     1398  HOH1398     0.0000
   6300 O           4.2980    4.1650   67.2440 O.3   1399  HOH1399     0.0000
   6301 H1          4.5230    5.0450   66.8240 H     1399  HOH1399     0.0000
   6302 H2          5.0340    3.8820   67.8580 H     1399  HOH1399     0.0000
   6303 O          16.0880   20.5100   71.8650 O.3   1400  HOH1400     0.0000
   6304 H1         16.4580   21.3830   71.5420 H     1400  HOH1400     0.0000
   6305 H2         16.4540   20.2990   72.7710 H     1400  HOH1400     0.0000
   6306 O           5.5950   22.5200    5.0470 O.3   1401  HOH1401     0.0000
   6307 H1          5.9110   21.6950    5.5200 H     1401  HOH1401     0.0000
   6308 H2          4.6990   22.7920    5.3960 H     1401  HOH1401     0.0000
   6309 O          23.8650   24.1200    2.7690 O.3   1402  HOH1402     0.0000
   6310 H1         24.5560   24.4940    2.1480 H     1402  HOH1402     0.0000
   6311 H2         24.3030   23.5510    3.4640 H     1402  HOH1402     0.0000
   6312 O          14.7620   13.7140   55.2250 O.3   1403  HOH1403     0.0000
   6313 H1         14.6600   14.5710   54.7180 H     1403  HOH1403     0.0000
   6314 H2         14.0390   13.0750   54.9650 H     1403  HOH1403     0.0000
   6315 O          19.3860   19.6110    5.3490 O.3   1404  HOH1404     0.0000
   6316 H1         19.6720   20.4250    4.8420 H     1404  HOH1404     0.0000
   6317 H2         19.3720   19.8060    6.3290 H     1404  HOH1404     0.0000
   6318 O          32.1650   25.8230    5.2730 O.3   1405  HOH1405     0.0000
   6319 H1         33.0530   25.5890    5.6710 H     1405  HOH1405     0.0000
   6320 H2         32.2820   26.1270    4.3280 H     1405  HOH1405     0.0000
   6321 O          15.1690   11.7050   13.2060 O.3   1406  HOH1406     0.0000
   6322 H1         15.4930   10.8980   13.7020 H     1406  HOH1406     0.0000
   6323 H2         14.8340   11.4400   12.3030 H     1406  HOH1406     0.0000
   6324 O           8.7790    4.2250   70.3520 O.3   1407  HOH1407     0.0000
   6325 H1          8.7970    3.3500   70.8390 H     1407  HOH1407     0.0000
   6326 H2          8.3660    4.1060   69.4500 H     1407  HOH1407     0.0000
   6327 O          20.5750   13.2950   65.0090 O.3   1408  HOH1408     0.0000
   6328 H1         20.4050   13.6030   65.9460 H     1408  HOH1408     0.0000
   6329 H2         21.0140   12.3980   65.0190 H     1408  HOH1408     0.0000
   6330 O           7.3670   13.2750   73.1350 O.3   1409  HOH1409     0.0000
   6331 H1          7.1820   12.8380   74.0160 H     1409  HOH1409     0.0000
   6332 H2          7.7820   14.1720   73.2790 H     1409  HOH1409     0.0000
   6333 O          17.6850   25.3800   18.7680 O.3   1410  HOH1410     0.0000
   6334 H1         17.1240   26.1640   19.0400 H     1410  HOH1410     0.0000
   6335 H2         17.4480   25.0970   17.8390 H     1410  HOH1410     0.0000
   6336 O          19.7100   28.9570    4.4620 O.3   1411  HOH1411     0.0000
   6337 H1         18.8050   29.0300    4.8830 H     1411  HOH1411     0.0000
   6338 H2         20.2200   29.8050    4.6000 H     1411  HOH1411     0.0000
   6339 O           5.8820   28.3090    3.2330 O.3   1412  HOH1412     0.0000
   6340 H1          6.6640   28.9110    3.0630 H     1412  HOH1412     0.0000
   6341 H2          6.0840   27.3860    2.9090 H     1412  HOH1412     0.0000
   6342 O          21.1430    2.6790    8.5020 O.3   1413  HOH1413     0.0000
   6343 H1         20.4770    2.0150    8.8430 H     1413  HOH1413     0.0000
   6344 H2         20.7230    3.5840    8.4440 H     1413  HOH1413     0.0000
   6345 O          29.3750   14.9050   14.6710 O.3   1414  HOH1414     0.0000
   6346 H1         29.8860   15.7350   14.4410 H     1414  HOH1414     0.0000
   6347 H2         29.9470   14.1000   14.5200 H     1414  HOH1414     0.0000
   6348 O          25.3580    8.1960   13.0870 O.3   1415  HOH1415     0.0000
   6349 H1         25.4950    9.1350   12.7690 H     1415  HOH1415     0.0000
   6350 H2         24.5910    8.1610   13.7270 H     1415  HOH1415     0.0000
   6351 O          32.4260   18.2400   69.1260 O.3   1416  HOH1416     0.0000
   6352 H1         33.0360   18.8570   68.6260 H     1416  HOH1416     0.0000
   6353 H2         32.7540   18.1200   70.0620 H     1416  HOH1416     0.0000
   6354 O           3.7990    6.2310   69.8130 O.3   1417  HOH1417     0.0000
   6355 H1          3.3430    5.4570   69.3700 H     1417  HOH1417     0.0000
   6356 H2          4.1910    5.9410   70.6850 H     1417  HOH1417     0.0000
   6357 O          31.7980    3.1690   12.8970 O.3   1418  HOH1418     0.0000
   6358 H1         32.4510    3.6970   12.3530 H     1418  HOH1418     0.0000
   6359 H2         31.7010    3.5760   13.8050 H     1418  HOH1418     0.0000
   6360 O          17.6710   10.0000   57.9920 O.3   1419  HOH1419     0.0000
   6361 H1         18.1240    9.8820   57.1070 H     1419  HOH1419     0.0000
   6362 H2         17.7730   10.9430   58.3050 H     1419  HOH1419     0.0000
   6363 O           6.5550   25.0890    6.1860 O.3   1420  HOH1420     0.0000
   6364 H1          7.5410   25.0400    6.0200 H     1420  HOH1420     0.0000
   6365 H2          6.3780   25.5220    7.0680 H     1420  HOH1420     0.0000
   6366 O          20.5250   22.3690   63.3470 O.3   1421  HOH1421     0.0000
   6367 H1         20.9430   22.9240   64.0680 H     1421  HOH1421     0.0000
   6368 H2         21.1960   22.1770   62.6320 H     1421  HOH1421     0.0000
   6369 O          22.6900   10.1690   73.1740 O.3   1422  HOH1422     0.0000
   6370 H1         22.7000   10.5220   72.2370 H     1422  HOH1422     0.0000
   6371 H2         21.7570   10.1760   73.5310 H     1422  HOH1422     0.0000
   6372 O           6.5450   14.6210   51.0120 O.3   1423  HOH1423     0.0000
   6373 H1          7.3150   15.0660   51.4730 H     1423  HOH1423     0.0000
   6374 H2          6.6900   13.6320   50.9840 H     1423  HOH1423     0.0000
   6375 O          20.2250   32.2380   19.6820 O.3   1424  HOH1424     0.0000
   6376 H1         19.3540   32.1800   19.1920 H     1424  HOH1424     0.0000
   6377 H2         20.1000   31.9660   20.6350 H     1424  HOH1424     0.0000
   6378 O           1.9030   14.4670   59.4150 O.3   1425  HOH1425     0.0000
   6379 H1          2.5530   13.7350   59.6250 H     1425  HOH1425     0.0000
   6380 H2          1.0530   14.0770   59.0600 H     1425  HOH1425     0.0000
   6381 O           2.0620    5.4020   17.0450 O.3   1426  HOH1426     0.0000
   6382 H1          2.7230    6.1310   17.2270 H     1426  HOH1426     0.0000
   6383 H2          2.2090    4.6420   17.6760 H     1426  HOH1426     0.0000
   6384 O          13.8740   23.1710    9.1790 O.3   1427  HOH1427     0.0000
   6385 H1         13.0140   23.2310    9.6880 H     1427  HOH1427     0.0000
   6386 H2         13.7040   22.8090    8.2630 H     1427  HOH1427     0.0000
   6387 O           3.0030   21.5860   53.2060 O.3   1428  HOH1428     0.0000
   6388 H1          3.8610   21.6090   53.7230 H     1428  HOH1428     0.0000
   6389 H2          3.1930   21.6470   52.2270 H     1428  HOH1428     0.0000
   6390 O          14.5720   13.9740    4.3460 O.3   1429  HOH1429     0.0000
   6391 H1         13.7460   14.4430    4.0290 H     1429  HOH1429     0.0000
   6392 H2         14.4940   12.9930    4.1770 H     1429  HOH1429     0.0000
   6393 O          31.2040    1.6300   63.6930 O.3   1430  HOH1430     0.0000
   6394 H1         30.9740    2.1880   62.8940 H     1430  HOH1430     0.0000
   6395 H2         30.6070    1.8680   64.4590 H     1430  HOH1430     0.0000
   6396 O          28.4710    6.1340   72.5590 O.3   1431  HOH1431     0.0000
   6397 H1         29.4160    6.2180   72.2390 H     1431  HOH1431     0.0000
   6398 H2         27.8630    5.9620   71.7850 H     1431  HOH1431     0.0000
   6399 O           6.9230    3.7080   57.3600 O.3   1432  HOH1432     0.0000
   6400 H1          6.1630    3.6400   58.0080 H     1432  HOH1432     0.0000
   6401 H2          6.8900    4.5880   56.8880 H     1432  HOH1432     0.0000
   6402 O          22.5960    8.9250   52.6550 O.3   1433  HOH1433     0.0000
   6403 H1         22.5300    9.4920   53.4770 H     1433  HOH1433     0.0000
   6404 H2         22.0380    9.3170   51.9240 H     1433  HOH1433     0.0000
   6405 O          18.3330    2.0690   14.7120 O.3   1434  HOH1434     0.0000
   6406 H1         19.0760    2.5150   14.2110 H     1434  HOH1434     0.0000
   6407 H2         18.6010    1.9250   15.6640 H     1434  HOH1434     0.0000
   6408 O          14.5840   23.8550   67.5780 O.3   1435  HOH1435     0.0000
   6409 H1         15.0520   23.0690   67.1710 H     1435  HOH1435     0.0000
   6410 H2         14.3840   23.6730   68.5400 H     1435  HOH1435     0.0000
   6411 O          24.9970    3.0340   15.3180 O.3   1436  HOH1436     0.0000
   6412 H1         25.7390    2.5700   14.8320 H     1436  HOH1436     0.0000
   6413 H2         24.9100    3.9740   14.9900 H     1436  HOH1436     0.0000
   6414 O          23.0900   19.3880   69.7800 O.3   1437  HOH1437     0.0000
   6415 H1         22.7350   18.6930   70.4070 H     1437  HOH1437     0.0000
   6416 H2         22.5600   19.3880   68.9330 H     1437  HOH1437     0.0000
   6417 O          24.4390   11.0230    1.4610 O.3   1438  HOH1438     0.0000
   6418 H1         23.9370   10.2850    1.0080 H     1438  HOH1438     0.0000
   6419 H2         25.3120   11.1760    1.0000 H     1438  HOH1438     0.0000
   6420 O          31.0770   16.9590   58.2430 O.3   1439  HOH1439     0.0000
   6421 H1         30.4150   17.6660   58.4930 H     1439  HOH1439     0.0000
   6422 H2         31.6250   16.7060   59.0400 H     1439  HOH1439     0.0000
   6423 O          29.4680    6.3110   61.2430 O.3   1440  HOH1440     0.0000
   6424 H1         29.5470    6.5690   60.2790 H     1440  HOH1440     0.0000
   6425 H2         30.3100    5.8660   61.5470 H     1440  HOH1440     0.0000
   6426 O           7.9730   18.7830   18.7400 O.3   1441  HOH1441     0.0000
   6427 H1          8.9000   19.0890   18.5140 H     1441  HOH1441     0.0000
   6428 H2          7.5350   18.3950   17.9300 H     1441  HOH1441     0.0000
   6429 O          27.9570   14.2690   66.4900 O.3   1442  HOH1442     0.0000
   6430 H1         27.0620   14.3550   66.0500 H     1442  HOH1442     0.0000
   6431 H2         27.8470   14.2340   67.4830 H     1442  HOH1442     0.0000
   6432 O          14.1710   12.8080   59.7740 O.3   1443  HOH1443     0.0000
   6433 H1         14.4060   11.8360   59.8230 H     1443  HOH1443     0.0000
   6434 H2         14.6590   13.2390   59.0150 H     1443  HOH1443     0.0000
   6435 O          24.6710   14.5080   64.7820 O.3   1444  HOH1444     0.0000
   6436 H1         25.5980   14.4340   64.4110 H     1444  HOH1444     0.0000
   6437 H2         24.6400   14.1200   65.7030 H     1444  HOH1444     0.0000
   6438 O          12.4940   28.6290   58.2410 O.3   1445  HOH1445     0.0000
   6439 H1         13.2470   29.1770   58.6100 H     1445  HOH1445     0.0000
   6440 H2         11.7000   28.6890   58.8450 H     1445  HOH1445     0.0000
   6441 O          16.0160   15.3400   66.0410 O.3   1446  HOH1446     0.0000
   6442 H1         16.8130   15.9340   65.9220 H     1446  HOH1446     0.0000
   6443 H2         15.3640   15.7650   66.6680 H     1446  HOH1446     0.0000
   6444 O          16.5730   31.6980    9.9210 O.3   1447  HOH1447     0.0000
   6445 H1         15.9890   32.2410   10.5260 H     1447  HOH1447     0.0000
   6446 H2         16.5320   32.0600    8.9900 H     1447  HOH1447     0.0000
   6447 O          25.1040   21.6160   69.3390 O.3   1448  HOH1448     0.0000
   6448 H1         24.9760   21.3420   70.2930 H     1448  HOH1448     0.0000
   6449 H2         24.6290   22.4780   69.1640 H     1448  HOH1448     0.0000
   6450 O          31.5560   11.7100    4.3820 O.3   1449  HOH1449     0.0000
   6451 H1         31.0900   12.5070    3.9930 H     1449  HOH1449     0.0000
   6452 H2         31.9430   11.9430    5.2730 H     1449  HOH1449     0.0000
   6453 O          28.6800   21.8310   16.3770 O.3   1450  HOH1450     0.0000
   6454 H1         29.6140   21.7280   16.7230 H     1450  HOH1450     0.0000
   6455 H2         28.6970   22.2360   15.4640 H     1450  HOH1450     0.0000
   6456 O          15.5340    2.2340   16.9240 O.3   1451  HOH1451     0.0000
   6457 H1         15.4020    2.6130   17.8410 H     1451  HOH1451     0.0000
   6458 H2         16.5030    2.0470   16.7680 H     1451  HOH1451     0.0000
   6459 O          12.8860   26.6640   73.1090 O.3   1452  HOH1452     0.0000
   6460 H1         12.6180   27.2140   73.9020 H     1452  HOH1452     0.0000
   6461 H2         12.2660   26.8420   72.3460 H     1452  HOH1452     0.0000
   6462 O          24.1130   24.8360   17.3460 O.3   1453  HOH1453     0.0000
   6463 H1         24.0930   25.6510   16.7660 H     1453  HOH1453     0.0000
   6464 H2         24.5860   24.0920   16.8750 H     1453  HOH1453     0.0000
   6465 O          14.4760   27.0220    9.0840 O.3   1454  HOH1454     0.0000
   6466 H1         15.1610   27.1340    9.8060 H     1454  HOH1454     0.0000
   6467 H2         14.7680   26.3120    8.4440 H     1454  HOH1454     0.0000
   6468 O           1.5700    6.5210   72.3260 O.3   1455  HOH1455     0.0000
   6469 H1          1.0000    5.7500   72.6130 H     1455  HOH1455     0.0000
   6470 H2          2.2260    6.2200   71.6340 H     1455  HOH1455     0.0000
   6471 O          18.3670   19.0470   71.0360 O.3   1456  HOH1456     0.0000
   6472 H1         17.9010   18.8680   71.9040 H     1456  HOH1456     0.0000
   6473 H2         17.8640   19.7350   70.5140 H     1456  HOH1456     0.0000
   6474 O           1.6150   24.9780   11.9150 O.3   1457  HOH1457     0.0000
   6475 H1          1.3550   24.8980   12.8780 H     1457  HOH1457     0.0000
   6476 H2          1.4770   25.9170   11.6010 H     1457  HOH1457     0.0000
   6477 O          32.2050    9.7700   70.5560 O.3   1458  HOH1458     0.0000
   6478 H1         31.6140    9.0070   70.2910 H     1458  HOH1458     0.0000
   6479 H2         32.6280   10.1720   69.7440 H     1458  HOH1458     0.0000
   6480 O           3.5070   22.2770   69.3840 O.3   1459  HOH1459     0.0000
   6481 H1          4.2460   22.9450   69.2840 H     1459  HOH1459     0.0000
   6482 H2          3.7080   21.4610   68.8440 H     1459  HOH1459     0.0000
   6483 O          13.1110   12.2430   10.0280 O.3   1460  HOH1460     0.0000
   6484 H1         14.0610   12.4470    9.7880 H     1460  HOH1460     0.0000
   6485 H2         12.5200   13.0030    9.7620 H     1460  HOH1460     0.0000
   6486 O          31.7260   26.4790    9.7470 O.3   1461  HOH1461     0.0000
   6487 H1         32.6080   26.8620    9.4680 H     1461  HOH1461     0.0000
   6488 H2         31.8280   25.9780   10.6060 H     1461  HOH1461     0.0000
   6489 O          26.8590   31.7300   17.6420 O.3   1462  HOH1462     0.0000
   6490 H1         27.0290   31.0290   18.3370 H     1462  HOH1462     0.0000
   6491 H2         26.0240   32.2330   17.8600 H     1462  HOH1462     0.0000
   6492 O          16.3540   19.7040    7.8200 O.3   1463  HOH1463     0.0000
   6493 H1         15.8910   20.5790    7.9670 H     1463  HOH1463     0.0000
   6494 H2         16.2930   19.4440    6.8570 H     1463  HOH1463     0.0000
   6495 O          13.8850   17.5070   14.3130 O.3   1464  HOH1464     0.0000
   6496 H1         12.9030   17.6050   14.1460 H     1464  HOH1464     0.0000
   6497 H2         14.3970   17.7320   13.4850 H     1464  HOH1464     0.0000
   6498 O          12.0960   20.2940   69.2790 O.3   1465  HOH1465     0.0000
   6499 H1         11.6510   20.3420   70.1750 H     1465  HOH1465     0.0000
   6500 H2         12.7720   19.5590   69.2720 H     1465  HOH1465     0.0000
   6501 O          14.5800   17.1860   70.5340 O.3   1466  HOH1466     0.0000
   6502 H1         14.3310   18.0460   70.0860 H     1466  HOH1466     0.0000
   6503 H2         14.0790   17.0910   71.3940 H     1466  HOH1466     0.0000
   6504 O           6.6610   32.2400   56.3100 O.3   1467  HOH1467     0.0000
   6505 H1          5.7820   32.2400   56.7900 H     1467  HOH1467     0.0000
   6506 H2          6.5230   32.0200   55.3450 H     1467  HOH1467     0.0000
   6507 O          26.0050   20.5680    5.9030 O.3   1468  HOH1468     0.0000
   6508 H1         25.1020   20.6320    6.3290 H     1468  HOH1468     0.0000
   6509 H2         26.2020   21.4030    5.3910 H     1468  HOH1468     0.0000
   6510 O          12.1720   24.5650   63.7100 O.3   1469  HOH1469     0.0000
   6511 H1         11.6570   24.6230   64.5660 H     1469  HOH1469     0.0000
   6512 H2         13.1530   24.5990   63.8990 H     1469  HOH1469     0.0000
   6513 O          19.4560    7.8760   63.9390 O.3   1470  HOH1470     0.0000
   6514 H1         18.7940    7.4770   64.5750 H     1470  HOH1470     0.0000
   6515 H2         19.1310    7.7730   63.0000 H     1470  HOH1470     0.0000
   6516 O           6.2480    6.6690   22.9520 O.3   1471  HOH1471     0.0000
   6517 H1          6.4550    6.0880   22.1640 H     1471  HOH1471     0.0000
   6518 H2          6.1020    7.6110   22.6530 H     1471  HOH1471     0.0000
   6519 O          29.7850    6.8560    4.8740 O.3   1472  HOH1472     0.0000
   6520 H1         30.3880    7.5170    4.4260 H     1472  HOH1472     0.0000
   6521 H2         30.0710    6.7220    5.8230 H     1472  HOH1472     0.0000
   6522 O           7.6610   14.9450   62.0410 O.3   1473  HOH1473     0.0000
   6523 H1          7.9140   15.7870   61.5630 H     1473  HOH1473     0.0000
   6524 H2          6.7810   15.0630   62.4980 H     1473  HOH1473     0.0000
   6525 O           5.1910    1.6080   53.2010 O.3   1474  HOH1474     0.0000
   6526 H1          5.9100    1.0000   53.5400 H     1474  HOH1474     0.0000
   6527 H2          4.6040    1.1170   52.5590 H     1474  HOH1474     0.0000
   6528 O           1.8950   29.4230   20.3270 O.3   1475  HOH1475     0.0000
   6529 H1          2.5770   29.7520   19.6720 H     1475  HOH1475     0.0000
   6530 H2          0.9990   29.3640   19.8880 H     1475  HOH1475     0.0000
   6531 O          16.2810   29.3270   10.3510 O.3   1476  HOH1476     0.0000
   6532 H1         17.2070   29.5970   10.0840 H     1476  HOH1476     0.0000
   6533 H2         16.3050   28.8450   11.2260 H     1476  HOH1476     0.0000
   6534 O          20.1510   21.1380   53.2490 O.3   1477  HOH1477     0.0000
   6535 H1         19.8610   20.1800   53.2540 H     1477  HOH1477     0.0000
   6536 H2         19.6200   21.6590   53.9160 H     1477  HOH1477     0.0000
   6537 O          21.4580   22.1630    5.9510 O.3   1478  HOH1478     0.0000
   6538 H1         20.5320   21.9020    6.2280 H     1478  HOH1478     0.0000
   6539 H2         22.0430   22.2520    6.7560 H     1478  HOH1478     0.0000
   6540 O          13.5760    7.1810    6.7960 O.3   1479  HOH1479     0.0000
   6541 H1         13.2450    6.3180    6.4110 H     1479  HOH1479     0.0000
   6542 H2         14.1090    7.6780    6.1130 H     1479  HOH1479     0.0000
   6543 O          12.1820   10.1690   21.9360 O.3   1480  HOH1480     0.0000
   6544 H1         11.6600   10.9010   22.3780 H     1480  HOH1480     0.0000
   6545 H2         12.6130    9.5910   22.6280 H     1480  HOH1480     0.0000
   6546 O          12.7050    3.4940   62.7810 O.3   1481  HOH1481     0.0000
   6547 H1         12.0330    2.7600   62.6790 H     1481  HOH1481     0.0000
   6548 H2         13.5920    3.1130   63.0380 H     1481  HOH1481     0.0000
   6549 O          29.8020   26.4160   11.4820 O.3   1482  HOH1482     0.0000
   6550 H1         28.8460   26.5770   11.2310 H     1482  HOH1482     0.0000
   6551 H2         30.3000   27.2820   11.5020 H     1482  HOH1482     0.0000
   6552 O           9.6700   19.9770    1.3040 O.3   1483  HOH1483     0.0000
   6553 H1          8.8310   19.5250    1.0000 H     1483  HOH1483     0.0000
   6554 H2          9.5160   20.4290    2.1830 H     1483  HOH1483     0.0000
   6555 O          15.9500    6.5020   68.0240 O.3   1484  HOH1484     0.0000
   6556 H1         15.1640    6.3140   67.4330 H     1484  HOH1484     0.0000
   6557 H2         15.9450    5.8820   68.8070 H     1484  HOH1484     0.0000
   6558 O           5.5820   15.8860   20.0870 O.3   1485  HOH1485     0.0000
   6559 H1          5.2410   16.0450   21.0140 H     1485  HOH1485     0.0000
   6560 H2          5.4620   16.7100   19.5330 H     1485  HOH1485     0.0000
   6561 O           9.1100   11.0340    7.2980 O.3   1486  HOH1486     0.0000
   6562 H1          8.9260   11.9970    7.0960 H     1486  HOH1486     0.0000
   6563 H2         10.0910   10.8530    7.2390 H     1486  HOH1486     0.0000
   6564 O           8.7650   26.1660   20.5870 O.3   1487  HOH1487     0.0000
   6565 H1          8.6860   25.1680   20.5900 H     1487  HOH1487     0.0000
   6566 H2          9.5680   26.4470   21.1110 H     1487  HOH1487     0.0000
   6567 O          23.1290   17.5820    4.3300 O.3   1488  HOH1488     0.0000
   6568 H1         23.1150   18.3630    3.7040 H     1488  HOH1488     0.0000
   6569 H2         23.1090   17.9030    5.2770 H     1488  HOH1488     0.0000
   6570 O           7.5130   16.0240   64.3640 O.3   1489  HOH1489     0.0000
   6571 H1          8.1210   16.3990   63.6620 H     1489  HOH1489     0.0000
   6572 H2          7.6980   15.0500   64.4910 H     1489  HOH1489     0.0000
   6573 O          13.7480   15.8220    5.9180 O.3   1490  HOH1490     0.0000
   6574 H1         13.1100   15.0780    6.1260 H     1490  HOH1490     0.0000
   6575 H2         13.3150   16.4810    5.3050 H     1490  HOH1490     0.0000
   6576 O          30.0200   19.0450   73.9930 O.3   1491  HOH1491     0.0000
   6577 H1         29.5860   19.8710   73.6290 H     1491  HOH1491     0.0000
   6578 H2         29.9500   18.3020   73.3290 H     1491  HOH1491     0.0000
   6579 O           3.9550   25.6390   61.0390 O.3   1492  HOH1492     0.0000
   6580 H1          4.0730   26.4550   60.4710 H     1492  HOH1492     0.0000
   6581 H2          3.1680   25.7540   61.6430 H     1492  HOH1492     0.0000
   6582 O          22.5320   27.5400   72.8170 O.3   1493  HOH1493     0.0000
   6583 H1         22.0270   27.9030   73.6020 H     1493  HOH1493     0.0000
   6584 H2         23.0650   28.2680   72.3880 H     1493  HOH1493     0.0000
   6585 O           2.2780   21.2390    4.6430 O.3   1494  HOH1494     0.0000
   6586 H1          2.6570   22.1190    4.9330 H     1494  HOH1494     0.0000
   6587 H2          2.3080   20.5880    5.4010 H     1494  HOH1494     0.0000
   6588 O          12.2610    1.6290    4.8950 O.3   1495  HOH1495     0.0000
   6589 H1         11.7490    1.0000    4.3080 H     1495  HOH1495     0.0000
   6590 H2         11.7920    1.7380    5.7700 H     1495  HOH1495     0.0000
   6591 O          16.3550   13.2230    2.9660 O.3   1496  HOH1496     0.0000
   6592 H1         16.1350   12.2480    2.9160 H     1496  HOH1496     0.0000
   6593 H2         17.3370   13.3450    3.1070 H     1496  HOH1496     0.0000
   6594 O          10.2490   18.5360   14.6960 O.3   1497  HOH1497     0.0000
   6595 H1         11.1040   18.8630   14.2890 H     1497  HOH1497     0.0000
   6596 H2          9.4910   18.6840   14.0620 H     1497  HOH1497     0.0000
   6597 O          17.3240   13.2290   66.8460 O.3   1498  HOH1498     0.0000
   6598 H1         17.7110   13.9600   66.2820 H     1498  HOH1498     0.0000
   6599 H2         16.3430   13.3760   66.9690 H     1498  HOH1498     0.0000
   6600 O          16.3790    9.9320   60.3510 O.3   1499  HOH1499     0.0000
   6601 H1         16.3740   10.8700   59.9990 H     1499  HOH1499     0.0000
   6602 H2         16.7580    9.9160   61.2750 H     1499  HOH1499     0.0000
   6603 O          11.4960   27.0320    3.5220 O.3   1500  HOH1500     0.0000
   6604 H1         10.6600   27.5240    3.7720 H     1500  HOH1500     0.0000
   6605 H2         11.4660   26.1020    3.8850 H     1500  HOH1500     0.0000
   6606 O          27.8950   25.0350    4.2060 O.3   1501  HOH1501     0.0000
   6607 H1         28.1920   24.6880    5.0960 H     1501  HOH1501     0.0000
   6608 H2         28.1870   24.4120    3.4810 H     1501  HOH1501     0.0000
   6609 O          11.7120   31.5520   17.4330 O.3   1502  HOH1502     0.0000
   6610 H1         12.3680   32.0670   16.8790 H     1502  HOH1502     0.0000
   6611 H2         11.9450   31.6310   18.4010 H     1502  HOH1502     0.0000
   6612 O          24.6800   30.0780   55.3770 O.3   1503  HOH1503     0.0000
   6613 H1         24.5290   31.0090   55.0410 H     1503  HOH1503     0.0000
   6614 H2         25.1310   30.1050   56.2680 H     1503  HOH1503     0.0000
   6615 O          23.8350   13.1170   24.0190 O.3   1504  HOH1504     0.0000
   6616 H1         24.0220   12.3700   24.6580 H     1504  HOH1504     0.0000
   6617 H2         24.5570   13.1660   23.3300 H     1504  HOH1504     0.0000
   6618 O          18.6910   19.7900   62.6640 O.3   1505  HOH1505     0.0000
   6619 H1         19.6470   19.9790   62.8900 H     1505  HOH1505     0.0000
   6620 H2         18.2470   19.3190   63.4260 H     1505  HOH1505     0.0000
   6621 O          27.7060   21.0630   71.8350 O.3   1506  HOH1506     0.0000
   6622 H1         27.7830   20.8230   72.8040 H     1506  HOH1506     0.0000
   6623 H2         26.7500   21.2310   71.5990 H     1506  HOH1506     0.0000
   6624 O           3.2390   16.6230   73.5090 O.3   1507  HOH1507     0.0000
   6625 H1          4.0140   16.0340   73.7420 H     1507  HOH1507     0.0000
   6626 H2          3.5660   17.5300   73.2450 H     1507  HOH1507     0.0000
   6627 O          31.0540    3.8830   60.1510 O.3   1508  HOH1508     0.0000
   6628 H1         30.8340    4.7590   59.7190 H     1508  HOH1508     0.0000
   6629 H2         31.4980    4.0390   61.0320 H     1508  HOH1508     0.0000
   6630 O          21.9610    9.5570   70.3910 O.3   1509  HOH1509     0.0000
   6631 H1         22.8870    9.8410   70.1370 H     1509  HOH1509     0.0000
   6632 H2         21.3140    9.8230   69.6780 H     1509  HOH1509     0.0000
   6633 O          17.2560    4.3450   19.3790 O.3   1510  HOH1510     0.0000
   6634 H1         17.1870    3.8380   18.5180 H     1510  HOH1510     0.0000
   6635 H2         17.6810    3.7730   20.0790 H     1510  HOH1510     0.0000
   6636 O          30.0970    7.4310   12.4560 O.3   1511  HOH1511     0.0000
   6637 H1         29.2210    7.6230   12.9000 H     1511  HOH1511     0.0000
   6638 H2         29.9780    7.3990   11.4640 H     1511  HOH1511     0.0000
   6639 O          16.6350   32.2400   20.9980 O.3   1512  HOH1512     0.0000
   6640 H1         17.3900   32.2220   21.6550 H     1512  HOH1512     0.0000
   6641 H2         15.7890   31.9470   21.4420 H     1512  HOH1512     0.0000
   6642 O          19.6240   16.7870   56.0420 O.3   1513  HOH1513     0.0000
   6643 H1         19.5920   17.6520   56.5440 H     1513  HOH1513     0.0000
   6644 H2         19.2360   16.9070   55.1290 H     1513  HOH1513     0.0000
   6645 O          11.9090   12.8660   62.8500 O.3   1514  HOH1514     0.0000
   6646 H1         12.5140   13.4260   63.4190 H     1514  HOH1514     0.0000
   6647 H2         12.0600   11.8970   63.0420 H     1514  HOH1514     0.0000
   6648 O           7.0890   24.6220   65.8030 O.3   1515  HOH1515     0.0000
   6649 H1          7.3470   25.4210   66.3480 H     1515  HOH1515     0.0000
   6650 H2          6.8060   24.9080   64.8880 H     1515  HOH1515     0.0000
   6651 O          33.0860   10.9920   13.2200 O.3   1516  HOH1516     0.0000
   6652 H1         33.0480   10.2790   12.5180 H     1516  HOH1516     0.0000
   6653 H2         33.2630   11.8800   12.7950 H     1516  HOH1516     0.0000
   6654 O          25.5910   17.3720   12.2110 O.3   1517  HOH1517     0.0000
   6655 H1         25.6020   18.3730   12.2080 H     1517  HOH1517     0.0000
   6656 H2         25.0770   17.0330   11.4240 H     1517  HOH1517     0.0000
   6657 O          11.0020   17.9650   67.7170 O.3   1518  HOH1518     0.0000
   6658 H1         10.3910   17.9510   66.9240 H     1518  HOH1518     0.0000
   6659 H2         11.7230   18.6430   67.5800 H     1518  HOH1518     0.0000
   6660 O           7.2190   17.1750    2.7940 O.3   1519  HOH1519     0.0000
   6661 H1          7.2180   16.2520    3.1810 H     1519  HOH1519     0.0000
   6662 H2          7.7670   17.1950    1.9590 H     1519  HOH1519     0.0000
   6663 O          18.7350   25.0680   13.8720 O.3   1520  HOH1520     0.0000
   6664 H1         18.7020   24.6650   12.9560 H     1520  HOH1520     0.0000
   6665 H2         18.8230   26.0610   13.8050 H     1520  HOH1520     0.0000
   6666 O          32.4970   15.6150   67.5940 O.3   1521  HOH1521     0.0000
   6667 H1         31.8380   14.9260   67.2890 H     1521  HOH1521     0.0000
   6668 H2         32.0180   16.3860   68.0110 H     1521  HOH1521     0.0000
   6669 O          19.7580    9.3300   59.4630 O.3   1522  HOH1522     0.0000
   6670 H1         19.7430   10.0270   58.7450 H     1522  HOH1522     0.0000
   6671 H2         20.6960    9.0230   59.6210 H     1522  HOH1522     0.0000
   6672 O          24.3210   25.7690    4.1480 O.3   1523  HOH1523     0.0000
   6673 H1         25.0560   26.1020    4.7390 H     1523  HOH1523     0.0000
   6674 H2         24.2670   26.3280    3.3210 H     1523  HOH1523     0.0000
   6675 O          19.8140   11.7590   72.9060 O.3   1524  HOH1524     0.0000
   6676 H1         20.3640   12.5740   73.0960 H     1524  HOH1524     0.0000
   6677 H2         20.2740   11.1870   72.2280 H     1524  HOH1524     0.0000
   6678 O          30.8740    4.5490   66.3710 O.3   1525  HOH1525     0.0000
   6679 H1         29.8960    4.4330   66.5490 H     1525  HOH1525     0.0000
   6680 H2         31.2870    5.1130   67.0860 H     1525  HOH1525     0.0000
   6681 O          31.6490   21.8090   11.8490 O.3   1526  HOH1526     0.0000
   6682 H1         31.6310   21.1320   11.1120 H     1526  HOH1526     0.0000
   6683 H2         30.9230   22.4820   11.7130 H     1526  HOH1526     0.0000
   6684 O           2.8340   12.5810   63.9200 O.3   1527  HOH1527     0.0000
   6685 H1          2.7370   13.5580   63.7240 H     1527  HOH1527     0.0000
   6686 H2          3.4130   12.1500   63.2280 H     1527  HOH1527     0.0000
   6687 O          16.7270   29.4160   69.4260 O.3   1528  HOH1528     0.0000
   6688 H1         16.8440   28.4490   69.1940 H     1528  HOH1528     0.0000
   6689 H2         16.2310   29.5030   70.2890 H     1528  HOH1528     0.0000
   6690 O          12.6210   20.9160   59.4550 O.3   1529  HOH1529     0.0000
   6691 H1         12.9210   21.7000   60.0010 H     1529  HOH1529     0.0000
   6692 H2         12.4840   21.1940   58.5050 H     1529  HOH1529     0.0000
   6693 O           1.5040   10.8750   15.4430 O.3   1530  HOH1530     0.0000
   6694 H1          1.0000   11.2590   16.2180 H     1530  HOH1530     0.0000
   6695 H2          2.3300   10.4150   15.7670 H     1530  HOH1530     0.0000
   6696 O          14.5910    3.1740   53.4140 O.3   1531  HOH1531     0.0000
   6697 H1         13.8400    3.5250   53.9760 H     1531  HOH1531     0.0000
   6698 H2         14.2330    2.8000   52.5600 H     1531  HOH1531     0.0000
   6699 O           5.0580   15.6230   60.1360 O.3   1532  HOH1532     0.0000
   6700 H1          5.9760   15.6470   60.5360 H     1532  HOH1532     0.0000
   6701 H2          5.0710   16.0360   59.2260 H     1532  HOH1532     0.0000
   6702 O           5.1930    8.6760   69.5070 O.3   1533  HOH1533     0.0000
   6703 H1          5.8200    9.3840   69.8350 H     1533  HOH1533     0.0000
   6704 H2          5.2670    7.8620   70.0820 H     1533  HOH1533     0.0000
   6705 O           1.9130   28.1180   53.0330 O.3   1534  HOH1534     0.0000
   6706 H1          2.5790   28.8000   52.7280 H     1534  HOH1534     0.0000
   6707 H2          1.0000   28.3630   52.7090 H     1534  HOH1534     0.0000
   6708 O          12.1120   15.3780   10.0050 O.3   1535  HOH1535     0.0000
   6709 H1         11.4580   15.7490   10.6660 H     1535  HOH1535     0.0000
   6710 H2         11.9020   15.7170    9.0890 H     1535  HOH1535     0.0000
   6711 O          21.6280    6.5500   70.4940 O.3   1536  HOH1536     0.0000
   6712 H1         20.6800    6.3940   70.2110 H     1536  HOH1536     0.0000
   6713 H2         22.2420    6.4210   69.7150 H     1536  HOH1536     0.0000
   6714 O           1.6080   26.7920    4.7710 O.3   1537  HOH1537     0.0000
   6715 H1          2.5590   26.8630    5.0750 H     1537  HOH1537     0.0000
   6716 H2          1.0000   27.1920    5.4550 H     1537  HOH1537     0.0000
   6717 O          26.0180   28.2280   51.7670 O.3   1538  HOH1538     0.0000
   6718 H1         26.1410   28.3920   50.7870 H     1538  HOH1538     0.0000
   6719 H2         26.4080   28.9850   52.2910 H     1538  HOH1538     0.0000
   6720 O           5.0880   19.0660    4.3040 O.3   1539  HOH1539     0.0000
   6721 H1          4.7870   20.0060    4.1360 H     1539  HOH1539     0.0000
   6722 H2          5.9890   19.0680    4.7360 H     1539  HOH1539     0.0000
   6723 O           3.2360    2.1720   63.5400 O.3   1540  HOH1540     0.0000
   6724 H1          3.1770    1.1990   63.7680 H     1540  HOH1540     0.0000
   6725 H2          2.8880    2.7220   64.2980 H     1540  HOH1540     0.0000
   6726 O          29.2990   32.1300    6.8640 O.3   1541  HOH1541     0.0000
   6727 H1         29.3250   31.2040    7.2440 H     1541  HOH1541     0.0000
   6728 H2         30.0210   32.2400    6.1820 H     1541  HOH1541     0.0000
   6729 O          32.6530   16.9380   65.6720 O.3   1542  HOH1542     0.0000
   6730 H1         32.4880   17.8180   66.1190 H     1542  HOH1542     0.0000
   6731 H2         31.8100   16.4020   65.6520 H     1542  HOH1542     0.0000
   6732 O          25.0310    6.3160   58.5460 O.3   1543  HOH1543     0.0000
   6733 H1         25.2040    5.7410   59.3470 H     1543  HOH1543     0.0000
   6734 H2         25.2550    5.8140   57.7110 H     1543  HOH1543     0.0000
   6735 O          29.6210    6.2780   23.8050 O.3   1544  HOH1544     0.0000
   6736 H1         30.6110    6.3700   23.6960 H     1544  HOH1544     0.0000
   6737 H2         29.4160    5.7250   24.6120 H     1544  HOH1544     0.0000
   6738 O          18.5410   10.9310   60.3660 O.3   1545  HOH1545     0.0000
   6739 H1         19.1110   11.6860   60.0390 H     1545  HOH1545     0.0000
   6740 H2         18.8290   10.6590   61.2840 H     1545  HOH1545     0.0000
   6741 O          19.6760    6.6800   12.1370 O.3   1546  HOH1546     0.0000
   6742 H1         18.7760    6.9680   12.4660 H     1546  HOH1546     0.0000
   6743 H2         20.3080    7.4540   12.1480 H     1546  HOH1546     0.0000
   6744 O           8.8390    6.2980    7.8020 O.3   1547  HOH1547     0.0000
   6745 H1          9.7670    6.4540    7.4590 H     1547  HOH1547     0.0000
   6746 H2          8.8720    6.0020    8.7560 H     1547  HOH1547     0.0000
   6747 O          32.3880   14.5220    1.9800 O.3   1548  HOH1548     0.0000
   6748 H1         33.2710   14.1420    2.2580 H     1548  HOH1548     0.0000
   6749 H2         32.3540   14.6150    0.9850 H     1548  HOH1548     0.0000
   6750 O           8.3730   22.7920   10.7980 O.3   1549  HOH1549     0.0000
   6751 H1          8.8060   23.5130   11.3410 H     1549  HOH1549     0.0000
   6752 H2          7.4490   22.6180   11.1350 H     1549  HOH1549     0.0000
   6753 O          18.9440   30.5710   53.1100 O.3   1550  HOH1550     0.0000
   6754 H1         19.1640   31.4460   53.5440 H     1550  HOH1550     0.0000
   6755 H2         18.5510   30.7270   52.2050 H     1550  HOH1550     0.0000
   6756 O          22.2320   21.2820   67.4840 O.3   1551  HOH1551     0.0000
   6757 H1         22.1950   22.1680   67.0190 H     1551  HOH1551     0.0000
   6758 H2         21.6690   21.3040   68.3090 H     1551  HOH1551     0.0000
   6759 O          32.7290   22.2150   62.2090 O.3   1552  HOH1552     0.0000
   6760 H1         32.2010   21.5990   62.7960 H     1552  HOH1552     0.0000
   6761 H2         33.2660   21.6860   61.5540 H     1552  HOH1552     0.0000
   6762 O          24.6550   22.1990   17.9930 O.3   1553  HOH1553     0.0000
   6763 H1         25.3620   22.7430   18.4480 H     1553  HOH1553     0.0000
   6764 H2         23.9750   21.8970   18.6600 H     1553  HOH1553     0.0000
   6765 O           6.5220   15.4100   16.8600 O.3   1554  HOH1554     0.0000
   6766 H1          7.0160   14.6320   16.4690 H     1554  HOH1554     0.0000
   6767 H2          6.1790   15.1750   17.7680 H     1554  HOH1554     0.0000
   6768 O          27.3160   17.4060   63.1060 O.3   1555  HOH1555     0.0000
   6769 H1         26.8200   17.8250   63.8680 H     1555  HOH1555     0.0000
   6770 H2         27.3990   16.4210   63.2530 H     1555  HOH1555     0.0000
   6771 O          16.0200   11.1220    8.2680 O.3   1556  HOH1556     0.0000
   6772 H1         15.5900   10.5910    9.0000 H     1556  HOH1556     0.0000
   6773 H2         16.7290   10.5770    7.8220 H     1556  HOH1556     0.0000
   6774 O          25.3560   22.5000   12.7550 O.3   1557  HOH1557     0.0000
   6775 H1         24.9790   21.7410   12.2220 H     1557  HOH1557     0.0000
   6776 H2         24.8420   22.6090   13.6050 H     1557  HOH1557     0.0000
   6777 O          21.6680   26.1490   57.0510 O.3   1558  HOH1558     0.0000
   6778 H1         22.2820   25.4520   56.6780 H     1558  HOH1558     0.0000
   6779 H2         21.8880   27.0430   56.6600 H     1558  HOH1558     0.0000
   6780 O           7.6370   10.5830   22.0010 O.3   1559  HOH1559     0.0000
   6781 H1          6.8300   11.0370   22.3820 H     1559  HOH1559     0.0000
   6782 H2          7.8290   10.9380   21.0880 H     1559  HOH1559     0.0000
   6783 O          26.9930   27.7660   11.7830 O.3   1560  HOH1560     0.0000
   6784 H1         26.5420   28.3920   12.4210 H     1560  HOH1560     0.0000
   6785 H2         27.4080   28.2810   11.0350 H     1560  HOH1560     0.0000
   6786 O           3.1050   23.7820   58.1690 O.3   1561  HOH1561     0.0000
   6787 H1          3.1980   24.1380   57.2370 H     1561  HOH1561     0.0000
   6788 H2          3.4630   24.4460   58.8250 H     1561  HOH1561     0.0000
   6789 O          17.7920   22.7150   60.1760 O.3   1562  HOH1562     0.0000
   6790 H1         17.7670   21.7270   60.0140 H     1562  HOH1562     0.0000
   6791 H2         18.4170   23.1510   59.5300 H     1562  HOH1562     0.0000
   6792 O           4.3670   28.0890    4.8140 O.3   1563  HOH1563     0.0000
   6793 H1          4.6120   27.4830    5.5720 H     1563  HOH1563     0.0000
   6794 H2          4.7340   29.0050    4.9770 H     1563  HOH1563     0.0000
   6795 O          15.0520   17.9720   59.1180 O.3   1564  HOH1564     0.0000
   6796 H1         14.8110   17.0070   59.2290 H     1564  HOH1564     0.0000
   6797 H2         14.2400   18.5010   58.8750 H     1564  HOH1564     0.0000
   6798 O          28.7980    4.3230   60.5780 O.3   1565  HOH1565     0.0000
   6799 H1         28.8920    3.7280   59.7790 H     1565  HOH1565     0.0000
   6800 H2         28.4590    3.7970   61.3570 H     1565  HOH1565     0.0000
   6801 O          10.6940    6.2870    2.6590 O.3   1566  HOH1566     0.0000
   6802 H1         10.0970    5.9470    3.3860 H     1566  HOH1566     0.0000
   6803 H2         11.6020    5.8760    2.7430 H     1566  HOH1566     0.0000
   6804 O          16.4300   27.8580   20.3840 O.3   1567  HOH1567     0.0000
   6805 H1         15.4730   27.5640   20.3690 H     1567  HOH1567     0.0000
   6806 H2         16.6520   28.2540   21.2750 H     1567  HOH1567     0.0000
   6807 O          16.8340   30.8020   73.0850 O.3   1568  HOH1568     0.0000
   6808 H1         17.2470   30.0880   72.5170 H     1568  HOH1568     0.0000
   6809 H2         16.6490   30.4450   74.0000 H     1568  HOH1568     0.0000
   6810 O          12.5230    7.7890   20.6480 O.3   1569  HOH1569     0.0000
   6811 H1         12.9870    7.5920   21.5130 H     1569  HOH1569     0.0000
   6812 H2         11.5350    7.6850   20.7580 H     1569  HOH1569     0.0000
   6813 O          17.2630   20.7760   12.1330 O.3   1570  HOH1570     0.0000
   6814 H1         17.5710   21.4630   12.7920 H     1570  HOH1570     0.0000
   6815 H2         17.3170   19.8640   12.5380 H     1570  HOH1570     0.0000
   6816 O           1.0690   27.6520    8.3570 O.3   1571  HOH1571     0.0000
   6817 H1          1.4640   26.8020    8.7080 H     1571  HOH1571     0.0000
   6818 H2          1.4910   27.8900    7.4830 H     1571  HOH1571     0.0000
   6819 O          26.8700   11.7270   16.7020 O.3   1572  HOH1572     0.0000
   6820 H1         26.3000   11.0890   17.2210 H     1572  HOH1572     0.0000
   6821 H2         26.7780   12.6500   17.0760 H     1572  HOH1572     0.0000
   6822 O          25.3740   14.7500   21.7720 O.3   1573  HOH1573     0.0000
   6823 H1         24.4590   14.9880   22.1020 H     1573  HOH1573     0.0000
   6824 H2         25.3190   14.3960   20.8390 H     1573  HOH1573     0.0000
   6825 O          28.8060   29.5610   72.0010 O.3   1574  HOH1574     0.0000
   6826 H1         29.4700   30.3060   71.9240 H     1574  HOH1574     0.0000
   6827 H2         28.5840   29.4000   72.9610 H     1574  HOH1574     0.0000
   6828 O           2.2700    8.4000   71.3430 O.3   1575  HOH1575     0.0000
   6829 H1          2.8360    8.0590   70.5910 H     1575  HOH1575     0.0000
   6830 H2          1.4930    8.9140   70.9790 H     1575  HOH1575     0.0000
   6831 O          28.3420   11.8630    5.5130 O.3   1576  HOH1576     0.0000
   6832 H1         27.6520   11.1550    5.6750 H     1576  HOH1576     0.0000
   6833 H2         29.2360   11.5470    5.8300 H     1576  HOH1576     0.0000
   6834 O          29.0230   21.5010   12.7600 O.3   1577  HOH1577     0.0000
   6835 H1         28.7170   22.3830   13.1220 H     1577  HOH1577     0.0000
   6836 H2         28.6020   21.3320   11.8690 H     1577  HOH1577     0.0000
   6837 O          12.3410   24.0250   18.0200 O.3   1578  HOH1578     0.0000
   6838 H1         12.9180   24.3100   18.7860 H     1578  HOH1578     0.0000
   6839 H2         12.1480   23.0460   18.0840 H     1578  HOH1578     0.0000
   6840 O          18.9250   19.3810   13.9610 O.3   1579  HOH1579     0.0000
   6841 H1         18.8790   20.3580   14.1710 H     1579  HOH1579     0.0000
   6842 H2         19.8360   19.1470   13.6220 H     1579  HOH1579     0.0000
   6843 O          28.4650   22.6870   18.3910 O.3   1580  HOH1580     0.0000
   6844 H1         29.1010   23.4020   18.0970 H     1580  HOH1580     0.0000
   6845 H2         28.6920   22.3890   19.3180 H     1580  HOH1580     0.0000
   6846 O          19.6260   30.7210   16.8730 O.3   1581  HOH1581     0.0000
   6847 H1         19.9470   29.9720   17.4550 H     1581  HOH1581     0.0000
   6848 H2         20.2620   30.8600   16.1140 H     1581  HOH1581     0.0000
   6849 O           1.7400   30.2330   56.2100 O.3   1582  HOH1582     0.0000
   6850 H1          1.3390   31.0190   55.7360 H     1582  HOH1582     0.0000
   6851 H2          1.9130   30.4630   57.1670 H     1582  HOH1582     0.0000
   6852 O          24.3800   28.9790   13.2720 O.3   1583  HOH1583     0.0000
   6853 H1         24.0290   29.9110   13.3730 H     1583  HOH1583     0.0000
   6854 H2         24.9220   28.7290   14.0740 H     1583  HOH1583     0.0000
   6855 O          30.8390   13.2510   10.2440 O.3   1584  HOH1584     0.0000
   6856 H1         30.1050   12.6910   10.6320 H     1584  HOH1584     0.0000
   6857 H2         30.9710   13.0200    9.2800 H     1584  HOH1584     0.0000
   6858 O          32.8200    8.2520   11.2300 O.3   1585  HOH1585     0.0000
   6859 H1         33.2600    9.0020   10.7330 H     1585  HOH1585     0.0000
   6860 H2         33.2600    8.1260   12.1180 H     1585  HOH1585     0.0000
   6861 O          27.3890    1.0010    6.1240 O.3   1586  HOH1586     0.0000
   6862 H1         26.4540    1.1370    5.7950 H     1586  HOH1586     0.0000
   6863 H2         28.0260    1.0000    5.3530 H     1586  HOH1586     0.0000
   6864 O          17.1050   24.9160   11.4740 O.3   1587  HOH1587     0.0000
   6865 H1         16.3270   24.8870   12.1030 H     1587  HOH1587     0.0000
   6866 H2         17.5340   25.8180   11.5010 H     1587  HOH1587     0.0000
   6867 O          18.5980   28.5480   14.8050 O.3   1588  HOH1588     0.0000
   6868 H1         18.7640   29.1770   15.5660 H     1588  HOH1588     0.0000
   6869 H2         19.4170   28.0050   14.6250 H     1588  HOH1588     0.0000
   6870 O          19.3660   21.4760    1.3200 O.3   1589  HOH1589     0.0000
   6871 H1         18.4460   21.8660    1.2580 H     1589  HOH1589     0.0000
   6872 H2         20.0400   22.1400    1.0000 H     1589  HOH1589     0.0000
   6873 O          14.3310   30.3280   20.9970 O.3   1590  HOH1590     0.0000
   6874 H1         14.9620   29.7040   20.5330 H     1590  HOH1590     0.0000
   6875 H2         13.4180   29.9240   21.0340 H     1590  HOH1590     0.0000
   6876 O          23.5070   21.9370   53.7170 O.3   1591  HOH1591     0.0000
   6877 H1         24.3510   22.3590   53.3810 H     1591  HOH1591     0.0000
   6878 H2         23.6570   21.5550   54.6280 H     1591  HOH1591     0.0000
   6879 O          17.0600   25.5870   65.3420 O.3   1592  HOH1592     0.0000
   6880 H1         17.8780   26.0740   65.0330 H     1592  HOH1592     0.0000
   6881 H2         16.3480   25.6370   64.6420 H     1592  HOH1592     0.0000
   6882 O          23.9690   10.0870   19.4110 O.3   1593  HOH1593     0.0000
   6883 H1         24.7970   10.1800   18.8560 H     1593  HOH1593     0.0000
   6884 H2         23.3940   10.8970   19.3030 H     1593  HOH1593     0.0000
   6885 O          26.0390   15.0270   15.9890 O.3   1594  HOH1594     0.0000
   6886 H1         25.6930   14.5560   16.8010 H     1594  HOH1594     0.0000
   6887 H2         26.6950   14.4460   15.5100 H     1594  HOH1594     0.0000
   6888 O           6.2280    2.4920    6.4220 O.3   1595  HOH1595     0.0000
   6889 H1          6.3030    2.6810    7.4020 H     1595  HOH1595     0.0000
   6890 H2          5.9380    3.3160    5.9360 H     1595  HOH1595     0.0000
   6891 O          26.6370   12.2150   64.6200 O.3   1596  HOH1596     0.0000
   6892 H1         25.7380   12.3320   65.0440 H     1596  HOH1596     0.0000
   6893 H2         26.9880   11.2990   64.8090 H     1596  HOH1596     0.0000
   6894 O          23.2590   11.2850   21.6260 O.3   1597  HOH1597     0.0000
   6895 H1         22.3570   11.1020   21.2330 H     1597  HOH1597     0.0000
   6896 H2         23.4160   12.2710   21.6760 H     1597  HOH1597     0.0000
   6897 O          14.1210   10.4120   55.1290 O.3   1598  HOH1598     0.0000
   6898 H1         14.1850   10.3120   56.1230 H     1598  HOH1598     0.0000
   6899 H2         14.9750   10.7840   54.7670 H     1598  HOH1598     0.0000
   6900 O          23.3890    9.3200   65.8780 O.3   1599  HOH1599     0.0000
   6901 H1         22.7500    8.6150   66.1900 H     1599  HOH1599     0.0000
   6902 H2         23.8350    9.0270   65.0330 H     1599  HOH1599     0.0000
   6903 O          21.6680   25.5880   53.8310 O.3   1600  HOH1600     0.0000
   6904 H1         22.3820   25.8000   54.5000 H     1600  HOH1600     0.0000
   6905 H2         21.9730   25.8420   52.9140 H     1600  HOH1600     0.0000
   6906 O          27.6830   14.4580   70.1350 O.3   1601  HOH1601     0.0000
   6907 H1         27.4450   13.5350   69.8290 H     1601  HOH1601     0.0000
   6908 H2         28.4260   14.8230   69.5760 H     1601  HOH1601     0.0000
   6909 O          32.4610    3.7900   20.0810 O.3   1602  HOH1602     0.0000
   6910 H1         32.0850    3.4440   19.2200 H     1602  HOH1602     0.0000
   6911 H2         31.7210    3.9810   20.7250 H     1602  HOH1602     0.0000
   6912 O          17.0240   25.8450   56.8100 O.3   1603  HOH1603     0.0000
   6913 H1         17.9370   26.2240   56.6530 H     1603  HOH1603     0.0000
   6914 H2         17.0780   25.0760   57.4460 H     1603  HOH1603     0.0000
   6915 O          32.8320   14.1000   64.5340 O.3   1604  HOH1604     0.0000
   6916 H1         33.2590   14.9280   64.9010 H     1604  HOH1604     0.0000
   6917 H2         32.4800   14.2750   63.6160 H     1604  HOH1604     0.0000
   6918 O           8.8560    1.6610   58.7570 O.3   1605  HOH1605     0.0000
   6919 H1          9.6630    1.9710   59.2630 H     1605  HOH1605     0.0000
   6920 H2          8.6260    2.3210   58.0430 H     1605  HOH1605     0.0000
   6921 O          32.1250   22.3850   17.9840 O.3   1606  HOH1606     0.0000
   6922 H1         31.2570   22.8830   18.0040 H     1606  HOH1606     0.0000
   6923 H2         32.0340   21.5630   17.4220 H     1606  HOH1606     0.0000
   6924 O          23.6500    4.7240    4.1290 O.3   1607  HOH1607     0.0000
   6925 H1         22.6740    4.9150    4.2430 H     1607  HOH1607     0.0000
   6926 H2         24.0900    4.6440    5.0220 H     1607  HOH1607     0.0000
   6927 O          27.8120   13.0900   62.9770 O.3   1608  HOH1608     0.0000
   6928 H1         28.4400   13.8510   63.1440 H     1608  HOH1608     0.0000
   6929 H2         28.3190   12.2290   62.9490 H     1608  HOH1608     0.0000
   6930 O           2.6890    8.0560   50.6710 O.3   1609  HOH1609     0.0000
   6931 H1          2.8580    9.0420   50.6180 H     1609  HOH1609     0.0000
   6932 H2          1.7320    7.8860   50.9020 H     1609  HOH1609     0.0000
   6933 O          16.3380    1.8900   56.6530 O.3   1610  HOH1610     0.0000
   6934 H1         17.2850    1.9030   56.3280 H     1610  HOH1610     0.0000
   6935 H2         16.1270    1.0000   57.0540 H     1610  HOH1610     0.0000
   6936 O          23.7640   29.3090   19.1710 O.3   1611  HOH1611     0.0000
   6937 H1         24.1400   30.1210   18.7210 H     1611  HOH1611     0.0000
   6938 H2         23.6950   28.5570   18.5180 H     1611  HOH1611     0.0000
   6939 O           1.8890   31.1440   52.7810 O.3   1612  HOH1612     0.0000
   6940 H1          1.0000   30.6850   52.7450 H     1612  HOH1612     0.0000
   6941 H2          2.2760   31.0670   53.6990 H     1612  HOH1612     0.0000
   6942 O          33.2730   20.1230   14.3510 O.3   1613  HOH1613     0.0000
   6943 H1         33.2750   20.5020   15.2770 H     1613  HOH1613     0.0000
   6944 H2         33.1600   20.8570   13.6820 H     1613  HOH1613     0.0000
   6945 O          12.9640    6.3720   63.3630 O.3   1614  HOH1614     0.0000
   6946 H1         13.1740    5.4460   63.6810 H     1614  HOH1614     0.0000
   6947 H2         12.0660    6.6540   63.7010 H     1614  HOH1614     0.0000
   6948 O          32.8000    6.8520   65.7590 O.3   1615  HOH1615     0.0000
   6949 H1         33.2600    7.6330   66.1840 H     1615  HOH1615     0.0000
   6950 H2         33.0920    6.0030   66.1980 H     1615  HOH1615     0.0000
   6951 O          18.4060   17.2750   24.1710 O.3   1616  HOH1616     0.0000
   6952 H1         19.3100   17.2410   23.7430 H     1616  HOH1616     0.0000
   6953 H2         17.7930   16.6220   23.7270 H     1616  HOH1616     0.0000
   6954 O           9.4280   19.4950   72.6750 O.3   1617  HOH1617     0.0000
   6955 H1          9.8870   18.6890   73.0520 H     1617  HOH1617     0.0000
   6956 H2          9.9310   19.8340   71.8810 H     1617  HOH1617     0.0000
   6957 O          15.4890   30.3210   67.2740 O.3   1618  HOH1618     0.0000
   6958 H1         14.8750   29.9090   66.5990 H     1618  HOH1618     0.0000
   6959 H2         14.9630   30.8600   67.9300 H     1618  HOH1618     0.0000
   6960 O          15.6430   16.9880    4.2920 O.3   1619  HOH1619     0.0000
   6961 H1         15.2350   17.5650    5.0010 H     1619  HOH1619     0.0000
   6962 H2         15.2410   16.0740    4.3230 H     1619  HOH1619     0.0000
   6963 O          23.9660   26.8730    0.9920 O.3   1620  HOH1620     0.0000
   6964 H1         24.8270   26.3630    1.0220 H     1620  HOH1620     0.0000
   6965 H2         23.2290   26.3230    1.3830 H     1620  HOH1620     0.0000
   6966 O           7.3590    2.2890    1.5260 O.3   1621  HOH1621     0.0000
   6967 H1          8.2290    2.0960    1.0690 H     1621  HOH1621     0.0000
   6968 H2          6.7000    1.5650    1.3250 H     1621  HOH1621     0.0000
   6969 O           3.2820   15.8710   70.3460 O.3   1622  HOH1622     0.0000
   6970 H1          3.3310   16.4090   71.1880 H     1622  HOH1622     0.0000
   6971 H2          2.4210   15.3650   70.3140 H     1622  HOH1622     0.0000
   6972 O          13.2230    9.3670   60.9340 O.3   1623  HOH1623     0.0000
   6973 H1         14.1500    9.2450   60.5770 H     1623  HOH1623     0.0000
   6974 H2         13.1570    8.9830   61.8540 H     1623  HOH1623     0.0000
   6975 O           5.7530   21.8370   61.0890 O.3   1624  HOH1624     0.0000
   6976 H1          5.3010   20.9440   61.0820 H     1624  HOH1624     0.0000
   6977 H2          6.6760   21.7560   60.7150 H     1624  HOH1624     0.0000
   6978 O          21.4320    6.3460   64.9620 O.3   1625  HOH1625     0.0000
   6979 H1         20.5940    5.9680   64.5670 H     1625  HOH1625     0.0000
   6980 H2         21.2420    7.2300   65.3860 H     1625  HOH1625     0.0000
   6981 O          21.9820    7.9180   54.9140 O.3   1626  HOH1626     0.0000
   6982 H1         22.9110    7.5660   54.7910 H     1626  HOH1626     0.0000
   6983 H2         21.4120    7.6570   54.1360 H     1626  HOH1626     0.0000
   6984 O           8.9590   27.8650   57.4040 O.3   1627  HOH1627     0.0000
   6985 H1          8.7790   26.9120   57.6520 H     1627  HOH1627     0.0000
   6986 H2          9.6490   27.9060   56.6830 H     1627  HOH1627     0.0000
   6987 O          28.2740   26.3540   16.9090 O.3   1628  HOH1628     0.0000
   6988 H1         27.8980   25.6400   17.5020 H     1628  HOH1628     0.0000
   6989 H2         28.8290   25.9400   16.1880 H     1628  HOH1628     0.0000
   6990 O          20.7950    4.6870   15.7180 O.3   1629  HOH1629     0.0000
   6991 H1         20.0530    4.1280   15.3440 H     1629  HOH1629     0.0000
   6992 H2         20.5820    4.9530   16.6570 H     1629  HOH1629     0.0000
   6993 O          10.1780   11.3600   16.7640 O.3   1630  HOH1630     0.0000
   6994 H1          9.4460   11.6260   16.1350 H     1630  HOH1630     0.0000
   6995 H2         10.8730   12.0760   16.8020 H     1630  HOH1630     0.0000
   6996 O          12.7970   16.1600   73.0880 O.3   1631  HOH1631     0.0000
   6997 H1         13.3540   15.4470   72.6600 H     1631  HOH1631     0.0000
   6998 H2         12.5130   15.8690   74.0010 H     1631  HOH1631     0.0000
   6999 O          19.0930   18.2170    8.3980 O.3   1632  HOH1632     0.0000
   7000 H1         18.3290   18.7700    8.0630 H     1632  HOH1632     0.0000
   7001 H2         19.3030   18.4630    9.3440 H     1632  HOH1632     0.0000
   7002 O           2.3290   24.4380   64.3920 O.3   1633  HOH1633     0.0000
   7003 H1          2.9020   24.6750   65.1780 H     1633  HOH1633     0.0000
   7004 H2          2.1660   25.2500   63.8320 H     1633  HOH1633     0.0000
   7005 O           6.9480   32.2150    6.8420 O.3   1634  HOH1634     0.0000
   7006 H1          5.9490   32.1510    6.8400 H     1634  HOH1634     0.0000
   7007 H2          7.3190   31.7910    6.0170 H     1634  HOH1634     0.0000
   7008 O          32.9130   13.7350   14.5730 O.3   1635  HOH1635     0.0000
   7009 H1         33.2750   12.8740   14.9330 H     1635  HOH1635     0.0000
   7010 H2         33.2730   13.8990   13.6550 H     1635  HOH1635     0.0000
   7011 O          23.9900    4.8440    1.9600 O.3   1636  HOH1636     0.0000
   7012 H1         23.3060    4.1180    2.0420 H     1636  HOH1636     0.0000
   7013 H2         24.2120    4.9960    0.9970 H     1636  HOH1636     0.0000
   7014 O          17.0040   25.6040    9.3550 O.3   1637  HOH1637     0.0000
   7015 H1         16.2170   24.9940    9.4640 H     1637  HOH1637     0.0000
   7016 H2         17.5120   25.3630    8.5290 H     1637  HOH1637     0.0000
   7017 O          29.0200   24.7550    8.5700 O.3   1638  HOH1638     0.0000
   7018 H1         29.4460   23.8510    8.5030 H     1638  HOH1638     0.0000
   7019 H2         28.4810   24.9400    7.7500 H     1638  HOH1638     0.0000
   7020 O          13.3380   21.5930   71.1740 O.3   1639  HOH1639     0.0000
   7021 H1         13.6790   20.6750   70.9670 H     1639  HOH1639     0.0000
   7022 H2         13.0350   22.0430   70.3350 H     1639  HOH1639     0.0000
   7023 O          31.7790    2.8770    6.6010 O.3   1640  HOH1640     0.0000
   7024 H1         31.8530    3.7720    7.0430 H     1640  HOH1640     0.0000
   7025 H2         32.3550    2.8490    5.7860 H     1640  HOH1640     0.0000
   7026 O           7.2710    7.1990   69.4630 O.3   1641  HOH1641     0.0000
   7027 H1          7.4920    7.9740   70.0580 H     1641  HOH1641     0.0000
   7028 H2          6.9370    6.4330   70.0110 H     1641  HOH1641     0.0000
   7029 O          10.5470   21.5940   57.5450 O.3   1642  HOH1642     0.0000
   7030 H1         10.2060   22.4440   57.9500 H     1642  HOH1642     0.0000
   7031 H2         10.3700   21.5900   56.5610 H     1642  HOH1642     0.0000
   7032 O          28.3060    8.5580   23.3330 O.3   1643  HOH1643     0.0000
   7033 H1         28.4310    9.5390   23.4830 H     1643  HOH1643     0.0000
   7034 H2         28.2200    8.0860   24.2100 H     1643  HOH1643     0.0000
   7035 O          18.8200    8.6860   14.4170 O.3   1644  HOH1644     0.0000
   7036 H1         17.8720    8.9920   14.5180 H     1644  HOH1644     0.0000
   7037 H2         19.1460    8.8830   13.4930 H     1644  HOH1644     0.0000
   7038 O           1.4590   16.9090   72.2130 O.3   1645  HOH1645     0.0000
   7039 H1          0.9990   17.6320   72.7310 H     1645  HOH1645     0.0000
   7040 H2          1.0120   16.0310   72.3810 H     1645  HOH1645     0.0000
   7041 O          15.9950   22.6810    4.4790 O.3   1646  HOH1646     0.0000
   7042 H1         15.1240   22.2040    4.3580 H     1646  HOH1646     0.0000
   7043 H2         16.2530   22.6820    5.4440 H     1646  HOH1646     0.0000
   7044 O          24.3630   17.1940   53.7800 O.3   1647  HOH1647     0.0000
   7045 H1         25.3440   17.1320   53.5870 H     1647  HOH1647     0.0000
   7046 H2         24.1400   18.1040   54.1270 H     1647  HOH1647     0.0000
   7047 O          29.1840   18.7730   55.1610 O.3   1648  HOH1648     0.0000
   7048 H1         29.2790   17.7780   55.1120 H     1648  HOH1648     0.0000
   7049 H2         29.0530   19.0580   56.1100 H     1648  HOH1648     0.0000
   7050 O          32.6240    2.9130   57.6070 O.3   1649  HOH1649     0.0000
   7051 H1         31.9550    3.0000   58.3480 H     1649  HOH1649     0.0000
   7052 H2         33.2600    3.6830   57.6300 H     1649  HOH1649     0.0000
   7053 O           5.2520   30.9820   63.2970 O.3   1650  HOH1650     0.0000
   7054 H1          5.2430   30.5020   64.1760 H     1650  HOH1650     0.0000
   7055 H2          5.6240   31.9020   63.4140 H     1650  HOH1650     0.0000
   7056 O          22.7350    1.9780   21.6980 O.3   1651  HOH1651     0.0000
   7057 H1         22.5300    1.0000   21.7550 H     1651  HOH1651     0.0000
   7058 H2         22.5860    2.4100   22.5870 H     1651  HOH1651     0.0000
   7059 O          26.7640    5.9840   60.8810 O.3   1652  HOH1652     0.0000
   7060 H1         26.9580    5.3810   61.6570 H     1652  HOH1652     0.0000
   7061 H2         27.3460    6.7950   60.9250 H     1652  HOH1652     0.0000
   7062 O           8.1390    8.6750    9.9420 O.3   1653  HOH1653     0.0000
   7063 H1          8.0140    8.4630   10.9130 H     1653  HOH1653     0.0000
   7064 H2          7.6250    8.0270    9.3820 H     1653  HOH1653     0.0000
   7065 O          11.5820    7.7950    7.4940 O.3   1654  HOH1654     0.0000
   7066 H1         11.4980    8.7080    7.8970 H     1654  HOH1654     0.0000
   7067 H2         11.2460    7.8060    6.5520 H     1654  HOH1654     0.0000
   7068 O          12.6130    6.1670    8.8320 O.3   1655  HOH1655     0.0000
   7069 H1         13.0800    6.5960    9.6060 H     1655  HOH1655     0.0000
   7070 H2         11.6250    6.1760    8.9820 H     1655  HOH1655     0.0000
   7071 O          24.2230    5.6190   63.7570 O.3   1656  HOH1656     0.0000
   7072 H1         24.1300    6.6100   63.8580 H     1656  HOH1656     0.0000
   7073 H2         25.1590    5.3400   63.9700 H     1656  HOH1656     0.0000
   7074 O          26.2890   31.7690   65.9700 O.3   1657  HOH1657     0.0000
   7075 H1         26.7240   31.0770   66.5480 H     1657  HOH1657     0.0000
   7076 H2         25.4490   32.0960   66.4020 H     1657  HOH1657     0.0000
   7077 O          25.0600   26.5440   55.6490 O.3   1658  HOH1658     0.0000
   7078 H1         25.7700   26.7770   56.3150 H     1658  HOH1658     0.0000
   7079 H2         24.3200   26.0460   56.0990 H     1658  HOH1658     0.0000
   7080 O           2.3820    4.8050   66.3740 O.3   1659  HOH1659     0.0000
   7081 H1          1.4970    4.9520   66.8160 H     1659  HOH1659     0.0000
   7082 H2          2.2470    4.4940   65.4340 H     1659  HOH1659     0.0000
   7083 O           8.0830    6.8540    1.2620 O.3   1660  HOH1660     0.0000
   7084 H1          7.5030    7.6690    1.3190 H     1660  HOH1660     0.0000
   7085 H2          9.0380    7.1030    1.4210 H     1660  HOH1660     0.0000
   7086 O           5.9560   13.4890   64.4380 O.3   1661  HOH1661     0.0000
   7087 H1          6.6000   12.9610   64.9940 H     1661  HOH1661     0.0000
   7088 H2          6.0420   13.2290   63.4770 H     1661  HOH1661     0.0000
   7089 O          33.2610    7.0940   21.2030 O.3   1662  HOH1662     0.0000
   7090 H1         33.1740    7.4670   20.2780 H     1662  HOH1662     0.0000
   7091 H2         32.7290    7.6450   21.8450 H     1662  HOH1662     0.0000
   7092 O          10.4890    3.1240   17.2170 O.3   1663  HOH1663     0.0000
   7093 H1         10.8160    3.8210   17.8570 H     1663  HOH1663     0.0000
   7094 H2          9.5180    2.9450   17.3750 H     1663  HOH1663     0.0000
   7095 O          18.1740    4.3520   16.5970 O.3   1664  HOH1664     0.0000
   7096 H1         17.6540    5.1740   16.8340 H     1664  HOH1664     0.0000
   7097 H2         17.8690    3.9980   15.7140 H     1664  HOH1664     0.0000
   7098 O          32.3720    6.4390   63.6410 O.3   1665  HOH1665     0.0000
   7099 H1         32.5020    7.3980   63.3860 H     1665  HOH1665     0.0000
   7100 H2         33.2590    6.0000   63.7810 H     1665  HOH1665     0.0000
   7101 O          17.9590   22.8920   70.4740 O.3   1666  HOH1666     0.0000
   7102 H1         18.6300   22.5140   69.8350 H     1666  HOH1666     0.0000
   7103 H2         17.5990   23.7550   70.1210 H     1666  HOH1666     0.0000
   7104 O          28.4020    4.8150    2.9240 O.3   1667  HOH1667     0.0000
   7105 H1         28.5340    5.4110    3.7170 H     1667  HOH1667     0.0000
   7106 H2         27.9690    5.3250    2.1820 H     1667  HOH1667     0.0000
   7107 O          23.1420    1.5960   19.5030 O.3   1668  HOH1668     0.0000
   7108 H1         23.4470    2.5470   19.5710 H     1668  HOH1668     0.0000
   7109 H2         23.7940    0.9940   19.9630 H     1668  HOH1668     0.0000
   7110 O          18.2120   27.6400   71.2470 O.3   1669  HOH1669     0.0000
   7111 H1         18.1510   28.5980   70.9650 H     1669  HOH1669     0.0000
   7112 H2         17.4800   27.1110   70.8180 H     1669  HOH1669     0.0000
   7113 O           1.8640   30.2920   50.1340 O.3   1670  HOH1670     0.0000
   7114 H1          2.3720   29.5910   49.6320 H     1670  HOH1670     0.0000
   7115 H2          1.1690   29.8640   50.7110 H     1670  HOH1670     0.0000
   7116 O          21.5270   13.3810    5.4070 O.3   1671  HOH1671     0.0000
   7117 H1         21.2670   14.2460    5.8390 H     1671  HOH1671     0.0000
   7118 H2         21.5970   12.6620    6.0960 H     1671  HOH1671     0.0000
   7119 O           6.6470    3.0240   16.8430 O.3   1672  HOH1672     0.0000
   7120 H1          7.4850    3.0270   16.2950 H     1672  HOH1672     0.0000
   7121 H2          6.2200    3.9260   16.8200 H     1672  HOH1672     0.0000
   7122 O          14.2680   24.3010   13.9280 O.3   1673  HOH1673     0.0000
   7123 H1         15.0460   23.7810   14.2850 H     1673  HOH1673     0.0000
   7124 H2         14.5920   25.1300   13.4740 H     1673  HOH1673     0.0000
   7125 O           7.3430   14.2340   14.2110 O.3   1674  HOH1674     0.0000
   7126 H1          8.1400   13.7440   13.8540 H     1674  HOH1674     0.0000
   7127 H2          6.5130   13.9150   13.7550 H     1674  HOH1674     0.0000
   7128 O          17.7530   13.2870    8.4560 O.3   1675  HOH1675     0.0000
   7129 H1         16.7700   13.1630    8.5970 H     1675  HOH1675     0.0000
   7130 H2         17.9790   13.1490    7.4920 H     1675  HOH1675     0.0000
   7131 O           8.3520   16.2030   18.3620 O.3   1676  HOH1676     0.0000
   7132 H1          7.5640   16.4370   18.9330 H     1676  HOH1676     0.0000
   7133 H2          9.0670   16.8930   18.4670 H     1676  HOH1676     0.0000
   7134 O          14.1600    2.9760   56.9580 O.3   1677  HOH1677     0.0000
   7135 H1         13.4240    2.5820   57.5110 H     1677  HOH1677     0.0000
   7136 H2         13.7750    3.5390   56.2280 H     1677  HOH1677     0.0000
   7137 O           4.8990   28.8920   11.7400 O.3   1678  HOH1678     0.0000
   7138 H1          3.9260   28.9550   11.9680 H     1678  HOH1678     0.0000
   7139 H2          5.4330   28.7320   12.5690 H     1678  HOH1678     0.0000
   7140 O          20.6700   20.1250    8.0960 O.3   1679  HOH1679     0.0000
   7141 H1         21.2010   19.7590    8.8610 H     1679  HOH1679     0.0000
   7142 H2         19.7620   20.4010    8.4100 H     1679  HOH1679     0.0000
   7143 O          16.4590   25.0290    2.0660 O.3   1680  HOH1680     0.0000
   7144 H1         16.7610   25.1190    3.0160 H     1680  HOH1680     0.0000
   7145 H2         16.9110   25.7150    1.4980 H     1680  HOH1680     0.0000
   7146 O           4.4420   17.1800    9.2310 O.3   1681  HOH1681     0.0000
   7147 H1          3.8050   17.8210    9.6630 H     1681  HOH1681     0.0000
   7148 H2          4.5060   16.3440    9.7740 H     1681  HOH1681     0.0000
   7149 O          19.3550   19.0830   60.3450 O.3   1682  HOH1682     0.0000
   7150 H1         19.0730   20.0290   60.5130 H     1682  HOH1682     0.0000
   7151 H2         18.7290   18.4530   60.8020 H     1682  HOH1682     0.0000
   7152 O          11.8350   13.9460   73.1780 O.3   1683  HOH1683     0.0000
   7153 H1         12.5410   13.4050   72.7180 H     1683  HOH1683     0.0000
   7154 H2         11.5400   13.4830   74.0130 H     1683  HOH1683     0.0000
   7155 O          19.8690    4.0640   21.7210 O.3   1684  HOH1684     0.0000
   7156 H1         19.0330    3.5170   21.7940 H     1684  HOH1684     0.0000
   7157 H2         19.7010    4.9900   22.0570 H     1684  HOH1684     0.0000
   7158 O          21.2820   14.5780   16.0600 O.3   1685  HOH1685     0.0000
   7159 H1         22.2600   14.4070   16.1880 H     1685  HOH1685     0.0000
   7160 H2         20.8460   14.7450   16.9430 H     1685  HOH1685     0.0000
   7161 O          23.0620   14.5180   18.5960 O.3   1686  HOH1686     0.0000
   7162 H1         23.8710   14.3850   18.0220 H     1686  HOH1686     0.0000
   7163 H2         22.5250   15.2890   18.2560 H     1686  HOH1686     0.0000
   7164 O          24.6040   22.0370   73.4450 O.3   1687  HOH1687     0.0000
   7165 H1         24.5330   23.0090   73.2150 H     1687  HOH1687     0.0000
   7166 H2         23.8220   21.7590   74.0010 H     1687  HOH1687     0.0000
   7167 O          33.2600   18.3100   57.4450 O.3   1688  HOH1688     0.0000
   7168 H1         32.3650   18.6640   57.7190 H     1688  HOH1688     0.0000
   7169 H2         33.2270   17.9950   56.4970 H     1688  HOH1688     0.0000
   7170 O          15.9920    1.5820   68.4710 O.3   1689  HOH1689     0.0000
   7171 H1         16.7180    0.9980   68.1040 H     1689  HOH1689     0.0000
   7172 H2         16.1890    1.8140   69.4230 H     1689  HOH1689     0.0000
   7173 O          18.3590   29.9400   68.0450 O.3   1690  HOH1690     0.0000
   7174 H1         18.4570   29.2550   67.3210 H     1690  HOH1690     0.0000
   7175 H2         18.8420   29.6400   68.8660 H     1690  HOH1690     0.0000
   7176 O          25.7060   13.8750    5.7740 O.3   1691  HOH1691     0.0000
   7177 H1         25.2420   13.1440    5.2730 H     1691  HOH1691     0.0000
   7178 H2         26.6200   14.0210    5.3980 H     1691  HOH1691     0.0000
   7179 O           5.5000   20.7780   19.0610 O.3   1692  HOH1692     0.0000
   7180 H1          4.7090   21.1010   19.5830 H     1692  HOH1692     0.0000
   7181 H2          5.3360   20.8990   18.0830 H     1692  HOH1692     0.0000
   7182 O          15.4930   28.2230   60.3190 O.3   1693  HOH1693     0.0000
   7183 H1         15.4680   27.3090   60.7270 H     1693  HOH1693     0.0000
   7184 H2         15.8980   28.1790   59.4070 H     1693  HOH1693     0.0000
   7185 O          17.0140   11.5420   10.3960 O.3   1694  HOH1694     0.0000
   7186 H1         16.6320   10.9720   11.1250 H     1694  HOH1694     0.0000
   7187 H2         17.6010   10.9920    9.8040 H     1694  HOH1694     0.0000
   7188 O          12.3910    8.1400   11.0140 O.3   1695  HOH1695     0.0000
   7189 H1         11.9500    8.6030   10.2440 H     1695  HOH1695     0.0000
   7190 H2         12.1470    8.5930   11.8700 H     1695  HOH1695     0.0000
   7191 O          24.5220    3.7490   58.1710 O.3   1696  HOH1696     0.0000
   7192 H1         23.7670    4.3580   58.4200 H     1696  HOH1696     0.0000
   7193 H2         24.4770    2.9100   58.7110 H     1696  HOH1696     0.0000
   7194 O           8.4840    1.9390   73.9190 O.3   1697  HOH1697     0.0000
   7195 H1          8.5430    2.9350   74.0010 H     1697  HOH1697     0.0000
   7196 H2          9.1020    1.6170   73.2020 H     1697  HOH1697     0.0000
   7197 O          28.3640   14.7740    9.4820 O.3   1698  HOH1698     0.0000
   7198 H1         27.5720   14.6810    8.8770 H     1698  HOH1698     0.0000
   7199 H2         29.0310   14.0570    9.2840 H     1698  HOH1698     0.0000
   7200 O           7.1920    8.9180   20.4970 O.3   1699  HOH1699     0.0000
   7201 H1          6.3260    9.3820   20.6900 H     1699  HOH1699     0.0000
   7202 H2          7.1210    7.9490   20.7330 H     1699  HOH1699     0.0000
   7203 O           5.9960   18.7180   20.2620 O.3   1700  HOH1700     0.0000
   7204 H1          5.9060   18.2020   21.1140 H     1700  HOH1700     0.0000
   7205 H2          6.6650   19.4520   20.3760 H     1700  HOH1700     0.0000
   7206 O           5.3610   10.3420   61.4240 O.3   1701  HOH1701     0.0000
   7207 H1          4.6540   10.9860   61.7200 H     1701  HOH1701     0.0000
   7208 H2          5.4070    9.5710   62.0590 H     1701  HOH1701     0.0000
   7209 O           1.7420    3.9880   14.4610 O.3   1702  HOH1702     0.0000
   7210 H1          1.7930    4.9870   14.4220 H     1702  HOH1702     0.0000
   7211 H2          1.1650    3.6460   13.7200 H     1702  HOH1702     0.0000
   7212 O          19.7600   10.7320   17.5700 O.3   1703  HOH1703     0.0000
   7213 H1         19.5400   10.7170   16.5930 H     1703  HOH1703     0.0000
   7214 H2         19.2570   11.4680   18.0220 H     1703  HOH1703     0.0000
   7215 O          26.9860   21.1690   61.7530 O.3   1704  HOH1704     0.0000
   7216 H1         27.1430   20.8580   60.8150 H     1704  HOH1704     0.0000
   7217 H2         26.1690   20.7320   62.1260 H     1704  HOH1704     0.0000
   7218 O           2.0310   14.2200   11.0560 O.3   1705  HOH1705     0.0000
   7219 H1          2.6920   13.7480   11.6420 H     1705  HOH1705     0.0000
   7220 H2          2.3530   14.2180   10.1100 H     1705  HOH1705     0.0000
   7221 O           4.5770   20.1740   11.7430 O.3   1706  HOH1706     0.0000
   7222 H1          5.3540   20.2770   12.3650 H     1706  HOH1706     0.0000
   7223 H2          3.7210   20.1960   12.2580 H     1706  HOH1706     0.0000
   7224 O          21.2390   17.7950   54.9300 O.3   1707  HOH1707     0.0000
   7225 H1         21.6480   17.9630   55.8280 H     1707  HOH1707     0.0000
   7226 H2         20.6530   18.5620   54.6720 H     1707  HOH1707     0.0000
   7227 O          32.7710   29.7450   53.8640 O.3   1708  HOH1708     0.0000
   7228 H1         33.2240   28.9050   54.1670 H     1708  HOH1708     0.0000
   7229 H2         33.0820   29.9890   52.9460 H     1708  HOH1708     0.0000
   7230 O          26.4160    6.8610   54.6130 O.3   1709  HOH1709     0.0000
   7231 H1         27.2760    7.3720   54.6380 H     1709  HOH1709     0.0000
   7232 H2         26.4320    6.1310   55.2950 H     1709  HOH1709     0.0000
   7233 O          29.9830   32.2390   11.2060 O.3   1710  HOH1710     0.0000
   7234 H1         29.0270   32.2440   11.5040 H     1710  HOH1710     0.0000
   7235 H2         30.0430   31.9280   10.2580 H     1710  HOH1710     0.0000
   7236 O          31.6460   17.1180    8.1320 O.3   1711  HOH1711     0.0000
   7237 H1         30.8940   17.6000    8.5850 H     1711  HOH1711     0.0000
   7238 H2         32.5220   17.4830    8.4440 H     1711  HOH1711     0.0000
   7239 O           0.9390   12.8290   71.7700 O.3   1712  HOH1712     0.0000
   7240 H1          1.1870   13.7980   71.8100 H     1712  HOH1712     0.0000
   7241 H2          1.7610   12.2700   71.6680 H     1712  HOH1712     0.0000
   7242 O          23.8730    7.4510   67.8820 O.3   1713  HOH1713     0.0000
   7243 H1         23.3890    7.9690   68.5880 H     1713  HOH1713     0.0000
   7244 H2         24.5040    8.0500   67.3900 H     1713  HOH1713     0.0000
   7245 O          14.0830   11.5680   20.8700 O.3   1714  HOH1714     0.0000
   7246 H1         14.3580   10.8890   20.1880 H     1714  HOH1714     0.0000
   7247 H2         13.7680   12.4010   20.4160 H     1714  HOH1714     0.0000
   7248 O          11.0350   11.9190   71.4900 O.3   1715  HOH1715     0.0000
   7249 H1         10.8140   12.8820   71.3300 H     1715  HOH1715     0.0000
   7250 H2         11.1220   11.7460   72.4710 H     1715  HOH1715     0.0000
   7251 O          31.0190   30.0930   62.9460 O.3   1716  HOH1716     0.0000
   7252 H1         31.0870   29.1180   62.7300 H     1716  HOH1716     0.0000
   7253 H2         30.2110   30.2630   63.5090 H     1716  HOH1716     0.0000
   7254 O           5.4870   14.0010   55.0030 O.3   1717  HOH1717     0.0000
   7255 H1          5.6570   14.9780   55.1370 H     1717  HOH1717     0.0000
   7256 H2          4.6550   13.8690   54.4670 H     1717  HOH1717     0.0000
   7257 O          12.8700    7.3580   13.5410 O.3   1718  HOH1718     0.0000
   7258 H1         13.7280    7.8280   13.3320 H     1718  HOH1718     0.0000
   7259 H2         12.9640    6.3790   13.3610 H     1718  HOH1718     0.0000
   7260 O          11.6530   31.5190   63.3130 O.3   1719  HOH1719     0.0000
   7261 H1         11.8570   30.7560   62.6990 H     1719  HOH1719     0.0000
   7262 H2         12.4400   32.1310   63.3710 H     1719  HOH1719     0.0000
   7263 O          10.3610   31.1620   53.2280 O.3   1720  HOH1720     0.0000
   7264 H1          9.5130   30.9390   53.7110 H     1720  HOH1720     0.0000
   7265 H2         10.5540   30.4670   52.5370 H     1720  HOH1720     0.0000
   7266 O          16.8620   13.2680    5.3320 O.3   1721  HOH1721     0.0000
   7267 H1         16.4220   12.4020    5.0910 H     1721  HOH1721     0.0000
   7268 H2         16.3750   13.6990    6.0920 H     1721  HOH1721     0.0000
   7269 O          17.0820   18.6180   18.5450 O.3   1722  HOH1722     0.0000
   7270 H1         17.9080   18.5120   17.9880 H     1722  HOH1722     0.0000
   7271 H2         17.1630   19.4290   19.1230 H     1722  HOH1722     0.0000
   7272 O          30.4380   24.4630   16.4470 O.3   1723  HOH1723     0.0000
   7273 H1         30.3360   23.6330   15.8960 H     1723  HOH1723     0.0000
   7274 H2         30.8720   25.1820   15.9050 H     1723  HOH1723     0.0000
   7275 O          23.7630   16.8040   16.2150 O.3   1724  HOH1724     0.0000
   7276 H1         23.9310   15.8280   16.3620 H     1724  HOH1724     0.0000
   7277 H2         23.4390   17.2250   17.0610 H     1724  HOH1724     0.0000
   7278 O           5.5450   18.0320   55.3940 O.3   1725  HOH1725     0.0000
   7279 H1          5.9360   17.1920   55.0160 H     1725  HOH1725     0.0000
   7280 H2          5.2060   17.8650   56.3190 H     1725  HOH1725     0.0000
   7281 O          27.2690   21.5020   58.5100 O.3   1726  HOH1726     0.0000
   7282 H1         27.7930   22.2770   58.8660 H     1726  HOH1726     0.0000
   7283 H2         27.1500   21.5940   57.5220 H     1726  HOH1726     0.0000
   7284 O           4.4930   21.2290   64.2070 O.3   1727  HOH1727     0.0000
   7285 H1          5.2400   20.6390   64.5150 H     1727  HOH1727     0.0000
   7286 H2          4.6600   21.5310   63.2690 H     1727  HOH1727     0.0000
   7287 O          19.8020   11.3540    7.8630 O.3   1728  HOH1728     0.0000
   7288 H1         18.8500   11.1350    7.6470 H     1728  HOH1728     0.0000
   7289 H2         20.3920   11.1150    7.0930 H     1728  HOH1728     0.0000
   7290 O          33.1770   13.4700   53.1280 O.3   1729  HOH1729     0.0000
   7291 H1         33.2600   14.3010   53.6790 H     1729  HOH1729     0.0000
   7292 H2         32.5240   12.8430   53.5510 H     1729  HOH1729     0.0000
   7293 O          14.2800   27.6100    3.1540 O.3   1730  HOH1730     0.0000
   7294 H1         14.8450   28.4330    3.2240 H     1730  HOH1730     0.0000
   7295 H2         13.5990   27.6010    3.8850 H     1730  HOH1730     0.0000
   7296 O          11.9450   10.1540   55.5620 O.3   1731  HOH1731     0.0000
   7297 H1         11.9700   11.1110   55.8570 H     1731  HOH1731     0.0000
   7298 H2         11.4080    9.6120   56.2070 H     1731  HOH1731     0.0000
   7299 O           2.3000   15.4160   20.6060 O.3   1732  HOH1732     0.0000
   7300 H1          1.6000   15.8910   20.0710 H     1732  HOH1732     0.0000
   7301 H2          3.0700   15.1700   20.0180 H     1732  HOH1732     0.0000
   7302 O          29.8590    1.6420   17.1130 O.3   1733  HOH1733     0.0000
   7303 H1         29.0950    0.9990   17.1960 H     1733  HOH1733     0.0000
   7304 H2         29.5150    2.5800   17.0970 H     1733  HOH1733     0.0000
   7305 O          16.2690   16.3330   63.7960 O.3   1734  HOH1734     0.0000
   7306 H1         15.4650   16.6480   64.3020 H     1734  HOH1734     0.0000
   7307 H2         16.2180   15.3460   63.6540 H     1734  HOH1734     0.0000
   7308 O          15.6440   22.9700   52.2210 O.3   1735  HOH1735     0.0000
   7309 H1         16.0160   22.1930   52.7310 H     1735  HOH1735     0.0000
   7310 H2         15.4020   23.7070   52.8510 H     1735  HOH1735     0.0000
   7311 O           3.5040   14.9720   15.9440 O.3   1736  HOH1736     0.0000
   7312 H1          2.7390   15.5900   15.7600 H     1736  HOH1736     0.0000
   7313 H2          4.2610   15.1710   15.3230 H     1736  HOH1736     0.0000
   7314 O           3.7880   12.4360   55.8940 O.3   1737  HOH1737     0.0000
   7315 H1          4.0550   11.7810   55.1850 H     1737  HOH1737     0.0000
   7316 H2          2.7950   12.4340   56.0040 H     1737  HOH1737     0.0000
   7317 O           8.9770   21.0690    6.2640 O.3   1738  HOH1738     0.0000
   7318 H1          9.5540   21.2630    5.4690 H     1738  HOH1738     0.0000
   7319 H2          9.5450   20.7990    7.0400 H     1738  HOH1738     0.0000
   7320 O          20.9470   18.0070    3.6030 O.3   1739  HOH1739     0.0000
   7321 H1         20.0430   18.2700    3.2640 H     1739  HOH1739     0.0000
   7322 H2         21.0780   18.3520    4.5310 H     1739  HOH1739     0.0000
   7323 O          26.1350    9.6030   10.2630 O.3   1740  HOH1740     0.0000
   7324 H1         25.2130    9.6500   10.6490 H     1740  HOH1740     0.0000
   7325 H2         26.0990    9.2330    9.3360 H     1740  HOH1740     0.0000
   7326 O           3.9390    9.7990   56.1740 O.3   1741  HOH1741     0.0000
   7327 H1          4.4110   10.3780   56.8410 H     1741  HOH1741     0.0000
   7328 H2          4.5500    9.5910   55.4110 H     1741  HOH1741     0.0000
   7329 O          10.2180   13.1890   57.9400 O.3   1742  HOH1742     0.0000
   7330 H1         11.1120   13.5950   58.1310 H     1742  HOH1742     0.0000
   7331 H2          9.5080   13.8920   57.9770 H     1742  HOH1742     0.0000
   7332 O           9.6070   20.4080   52.6190 O.3   1743  HOH1743     0.0000
   7333 H1          9.5020   19.4130   52.6360 H     1743  HOH1743     0.0000
   7334 H2          9.9420   20.7320   53.5030 H     1743  HOH1743     0.0000
   7335 O          21.1700    8.1760   15.4320 O.3   1744  HOH1744     0.0000
   7336 H1         20.7450    7.8630   16.2830 H     1744  HOH1744     0.0000
   7337 H2         20.8440    9.0930   15.2040 H     1744  HOH1744     0.0000
   7338 O           7.2690   30.1020   20.7210 O.3   1745  HOH1745     0.0000
   7339 H1          6.3610   30.2620   21.1100 H     1745  HOH1745     0.0000
   7340 H2          7.1850   29.6710   19.8230 H     1745  HOH1745     0.0000
   7341 O          26.1670    3.6070    6.9040 O.3   1746  HOH1746     0.0000
   7342 H1         26.9850    3.1060    6.6190 H     1746  HOH1746     0.0000
   7343 H2         26.2720    3.9250    7.8460 H     1746  HOH1746     0.0000
   7344 O          26.0420   30.1800   73.8920 O.3   1747  HOH1747     0.0000
   7345 H1         25.2310   29.6030   74.0000 H     1747  HOH1747     0.0000
   7346 H2         26.2810   30.2550   72.9240 H     1747  HOH1747     0.0000
   7347 O          25.6600    2.1430   20.1230 O.3   1748  HOH1748     0.0000
   7348 H1         25.6220    2.9740   19.5660 H     1748  HOH1748     0.0000
   7349 H2         25.9000    2.3740   21.0650 H     1748  HOH1748     0.0000
   7350 O          23.8620   22.7560    0.9960 O.3   1749  HOH1749     0.0000
   7351 H1         22.9280   22.5980    1.3190 H     1749  HOH1749     0.0000
   7352 H2         24.5170   22.3520    1.6340 H     1749  HOH1749     0.0000
   7353 O          32.2990   23.3600    7.7470 O.3   1750  HOH1750     0.0000
   7354 H1         33.2610   23.5220    7.9730 H     1750  HOH1750     0.0000
   7355 H2         32.1640   23.4340    6.7590 H     1750  HOH1750     0.0000
   7356 O          20.9530   21.5650   19.3070 O.3   1751  HOH1751     0.0000
   7357 H1         21.8450   22.0120   19.2260 H     1751  HOH1751     0.0000
   7358 H2         20.9910   20.8510   20.0050 H     1751  HOH1751     0.0000
   7359 O          31.4630   20.9270   73.1800 O.3   1752  HOH1752     0.0000
   7360 H1         30.8640   21.2100   72.4300 H     1752  HOH1752     0.0000
   7361 H2         31.2600   21.4600   74.0000 H     1752  HOH1752     0.0000
   7362 O          28.9930   12.5790   68.5910 O.3   1753  HOH1753     0.0000
   7363 H1         29.5550   12.9500   69.3320 H     1753  HOH1753     0.0000
   7364 H2         28.6600   11.6700   68.8380 H     1753  HOH1753     0.0000
   7365 O          20.1440   25.2110    9.1630 O.3   1754  HOH1754     0.0000
   7366 H1         19.7240   24.7040    8.4090 H     1754  HOH1754     0.0000
   7367 H2         21.1390   25.1210    9.1230 H     1754  HOH1754     0.0000
   7368 O          21.0800   22.7740    8.6630 O.3   1755  HOH1755     0.0000
   7369 H1         20.1770   22.5580    8.2890 H     1755  HOH1755     0.0000
   7370 H2         21.4880   21.9560    9.0660 H     1755  HOH1755     0.0000
   7371 O          12.2510   24.9770   15.5410 O.3   1756  HOH1756     0.0000
   7372 H1         12.3710   25.4820   14.6850 H     1756  HOH1756     0.0000
   7373 H2         12.6330   24.0580   15.4510 H     1756  HOH1756     0.0000
   7374 O          12.8600    5.7860   66.7270 O.3   1757  HOH1757     0.0000
   7375 H1         13.2400    4.8760   66.8960 H     1757  HOH1757     0.0000
   7376 H2         13.0520    6.0680   65.7870 H     1757  HOH1757     0.0000
   7377 O          17.9660   13.0840   58.7710 O.3   1758  HOH1758     0.0000
   7378 H1         18.7350   13.6380   59.0930 H     1758  HOH1758     0.0000
   7379 H2         17.3430   12.8910   59.5290 H     1758  HOH1758     0.0000
   7380 O          24.5320   18.9500   18.3770 O.3   1759  HOH1759     0.0000
   7381 H1         24.7330   19.2100   17.4320 H     1759  HOH1759     0.0000
   7382 H2         25.3570   18.5960   18.8170 H     1759  HOH1759     0.0000
   7383 O           4.3520   17.7810   15.2780 O.3   1760  HOH1760     0.0000
   7384 H1          3.8620   17.2210   14.6080 H     1760  HOH1760     0.0000
   7385 H2          5.0050   17.2170   15.7830 H     1760  HOH1760     0.0000
   7386 O          31.4000   19.1440   71.8890 O.3   1761  HOH1761     0.0000
   7387 H1         32.1340   19.6870   71.4780 H     1761  HOH1761     0.0000
   7388 H2         31.6930   18.1950   71.9920 H     1761  HOH1761     0.0000
   7389 O          15.9810   12.6400   20.5820 O.3   1762  HOH1762     0.0000
   7390 H1         16.8210   12.1500   20.8190 H     1762  HOH1762     0.0000
   7391 H2         15.8210   13.3790   21.2350 H     1762  HOH1762     0.0000
   7392 O          23.4800   23.9730    8.1320 O.3   1763  HOH1763     0.0000
   7393 H1         23.4850   24.5570    8.9450 H     1763  HOH1763     0.0000
   7394 H2         23.2830   23.0280    8.3900 H     1763  HOH1763     0.0000
   7395 O          33.2600   31.3190   57.0220 O.3   1764  HOH1764     0.0000
   7396 H1         32.7660   32.1900   56.9960 H     1764  HOH1764     0.0000
   7397 H2         32.9060   30.7040   56.3190 H     1764  HOH1764     0.0000
   7398 O           9.0350    5.0900   17.4600 O.3   1765  HOH1765     0.0000
   7399 H1          8.1360    4.6730   17.6010 H     1765  HOH1765     0.0000
   7400 H2          9.2700    5.0750   16.4890 H     1765  HOH1765     0.0000
   7401 O          15.0680   30.1970   52.1050 O.3   1766  HOH1766     0.0000
   7402 H1         15.3450   30.3360   51.1530 H     1766  HOH1766     0.0000
   7403 H2         15.5360   29.4000   52.4840 H     1766  HOH1766     0.0000
   7404 O          12.8800    4.7140   57.9880 O.3   1767  HOH1767     0.0000
   7405 H1         12.1270    4.3570   57.4330 H     1767  HOH1767     0.0000
   7406 H2         12.5800    5.5240   58.4910 H     1767  HOH1767     0.0000
   7407 O          23.5780   24.7300   14.6860 O.3   1768  HOH1768     0.0000
   7408 H1         24.5590   24.5310   14.7110 H     1768  HOH1768     0.0000
   7409 H2         23.0840   24.0940   15.2770 H     1768  HOH1768     0.0000
   7410 O           1.1340   30.6990   61.4370 O.3   1769  HOH1769     0.0000
   7411 H1          1.0820   31.6660   61.6900 H     1769  HOH1769     0.0000
   7412 H2          1.4480   30.1580   62.2160 H     1769  HOH1769     0.0000
   7413 O           3.9150   29.4730   67.7710 O.3   1770  HOH1770     0.0000
   7414 H1          3.0750   28.9740   67.5500 H     1770  HOH1770     0.0000
   7415 H2          4.7120   28.8990   67.5840 H     1770  HOH1770     0.0000
   7416 O           4.3410   15.5160   64.7380 O.3   1771  HOH1771     0.0000
   7417 H1          3.9850   16.3670   65.1260 H     1771  HOH1771     0.0000
   7418 H2          5.3270   15.5910   64.5950 H     1771  HOH1771     0.0000
   7419 O          28.6290    3.0580   20.7050 O.3   1772  HOH1772     0.0000
   7420 H1         28.0690    2.5180   21.3350 H     1772  HOH1772     0.0000
   7421 H2         29.5460    2.6660   20.6400 H     1772  HOH1772     0.0000
   7422 O           4.5350    7.7140   64.2080 O.3   1773  HOH1773     0.0000
   7423 H1          4.5550    7.0380   64.9460 H     1773  HOH1773     0.0000
   7424 H2          5.3520    8.2890   64.2480 H     1773  HOH1773     0.0000
   7425 O          25.5110   17.3960    2.5810 O.3   1774  HOH1774     0.0000
   7426 H1         24.5970   17.6370    2.2500 H     1774  HOH1774     0.0000
   7427 H2         25.9740   16.8150    1.9130 H     1774  HOH1774     0.0000
   7428 O          29.5490   17.7570   21.4030 O.3   1775  HOH1775     0.0000
   7429 H1         29.4180   16.8400   21.7820 H     1775  HOH1775     0.0000
   7430 H2         29.9890   17.6970   20.5070 H     1775  HOH1775     0.0000
   7431 O          28.4990   18.7670   19.2970 O.3   1776  HOH1776     0.0000
   7432 H1         27.6130   18.3900   19.0220 H     1776  HOH1776     0.0000
   7433 H2         28.4210   19.2050   20.1920 H     1776  HOH1776     0.0000
   7434 O          11.8480   15.9200    3.5040 O.3   1777  HOH1777     0.0000
   7435 H1         11.5550   15.3450    2.7390 H     1777  HOH1777     0.0000
   7436 H2         11.5860   15.4960    4.3700 H     1777  HOH1777     0.0000
   7437 O          31.0220   12.9230   62.2200 O.3   1778  HOH1778     0.0000
   7438 H1         30.3240   12.2270   62.0440 H     1778  HOH1778     0.0000
   7439 H2         30.5880   13.8040   62.4010 H     1778  HOH1778     0.0000
   7440 O          15.2100   21.1370   63.3230 O.3   1779  HOH1779     0.0000
   7441 H1         14.6000   21.9150   63.1670 H     1779  HOH1779     0.0000
   7442 H2         16.0550   21.4470   63.7580 H     1779  HOH1779     0.0000
   7443 O          27.3360   24.5370   64.5520 O.3   1780  HOH1780     0.0000
   7444 H1         26.9080   24.1610   65.3750 H     1780  HOH1780     0.0000
   7445 H2         26.6410   24.7090   63.8540 H     1780  HOH1780     0.0000
   7446 O          21.7270    4.8240   55.8470 O.3   1781  HOH1781     0.0000
   7447 H1         21.3490    5.4470   55.1610 H     1781  HOH1781     0.0000
   7448 H2         21.8640    3.9180   55.4470 H     1781  HOH1781     0.0000
   7449 O          11.6940   31.2270   10.1840 O.3   1782  HOH1782     0.0000
   7450 H1         11.7260   32.2240   10.2700 H     1782  HOH1782     0.0000
   7451 H2         12.6150   30.8660   10.0460 H     1782  HOH1782     0.0000
   7452 O          29.1940    2.9290    8.3540 O.3   1783  HOH1783     0.0000
   7453 H1         28.3850    3.5160    8.3040 H     1783  HOH1783     0.0000
   7454 H2         29.8210    3.1470    7.6070 H     1783  HOH1783     0.0000
   7455 O          32.0440   31.0940    1.6180 O.3   1784  HOH1784     0.0000
   7456 H1         31.8280   30.1760    1.2820 H     1784  HOH1784     0.0000
   7457 H2         31.7020   31.2060    2.5510 H     1784  HOH1784     0.0000
   7458 O           8.4440    9.4540   56.2840 O.3   1785  HOH1785     0.0000
   7459 H1          8.1570   10.4080   56.3850 H     1785  HOH1785     0.0000
   7460 H2          9.1210    9.2240   56.9820 H     1785  HOH1785     0.0000
   7461 O          18.5200   17.9290   12.3280 O.3   1786  HOH1786     0.0000
   7462 H1         19.2340   17.2880   12.6140 H     1786  HOH1786     0.0000
   7463 H2         18.8960   18.5930   11.6830 H     1786  HOH1786     0.0000
   7464 O          22.3040    6.8060    9.7540 O.3   1787  HOH1787     0.0000
   7465 H1         22.4020    7.0320   10.7240 H     1787  HOH1787     0.0000
   7466 H2         22.1170    7.6350    9.2270 H     1787  HOH1787     0.0000
   7467 O           8.6330   19.4630    8.5370 O.3   1788  HOH1788     0.0000
   7468 H1          8.1990   18.9790    9.2980 H     1788  HOH1788     0.0000
   7469 H2          9.3160   18.8770    8.1040 H     1788  HOH1788     0.0000
   7470 O          25.3450   20.3480   57.2760 O.3   1789  HOH1789     0.0000
   7471 H1         24.9800   19.4510   57.0200 H     1789  HOH1789     0.0000
   7472 H2         25.0090   20.6090   58.1800 H     1789  HOH1789     0.0000
   7473 O          22.3300   29.7300    3.9840 O.3   1790  HOH1790     0.0000
   7474 H1         22.8670   30.4180    3.4950 H     1790  HOH1790     0.0000
   7475 H2         22.5710   29.7340    4.9540 H     1790  HOH1790     0.0000
   7476 O          22.8700   17.9080   12.8440 O.3   1791  HOH1791     0.0000
   7477 H1         23.5600   17.4660   13.4190 H     1791  HOH1791     0.0000
   7478 H2         21.9650   17.5400   13.0530 H     1791  HOH1791     0.0000
   7479 O          19.8350    5.1650   19.7470 O.3   1792  HOH1792     0.0000
   7480 H1         18.9620    5.5530   20.0480 H     1792  HOH1792     0.0000
   7481 H2         19.8710    5.1400   18.7480 H     1792  HOH1792     0.0000
   7482 O          31.2120   16.1510    2.8700 O.3   1793  HOH1793     0.0000
   7483 H1         31.8490   16.6340    2.2680 H     1793  HOH1793     0.0000
   7484 H2         31.7030   15.7710    3.6530 H     1793  HOH1793     0.0000
   7485 O          15.5460   31.2350   58.4200 O.3   1794  HOH1794     0.0000
   7486 H1         15.5330   32.2350   58.4540 H     1794  HOH1794     0.0000
   7487 H2         15.5010   30.9250   57.4710 H     1794  HOH1794     0.0000
   7488 O          13.3220   20.0330   20.7330 O.3   1795  HOH1795     0.0000
   7489 H1         13.5300   20.6090   21.5260 H     1795  HOH1795     0.0000
   7490 H2         12.6060   19.3760   20.9670 H     1795  HOH1795     0.0000
   7491 O           8.7190   16.7020    4.7250 O.3   1796  HOH1796     0.0000
   7492 H1          8.1190   16.0410    5.1770 H     1796  HOH1796     0.0000
   7493 H2          9.6750   16.4580    4.8800 H     1796  HOH1796     0.0000
   7494 O          11.5800   20.6020    4.2030 O.3   1797  HOH1797     0.0000
   7495 H1         11.4590   20.1870    5.1060 H     1797  HOH1797     0.0000
   7496 H2         12.5520   20.6390    3.9720 H     1797  HOH1797     0.0000
   7497 O          30.6770   25.3380   57.8810 O.3   1798  HOH1798     0.0000
   7498 H1         31.0150   26.1040   57.3320 H     1798  HOH1798     0.0000
   7499 H2         30.8150   24.4780   57.3920 H     1798  HOH1798     0.0000
   7500 O          28.4090   11.4250   13.9920 O.3   1799  HOH1799     0.0000
   7501 H1         27.9610   11.8460   14.7820 H     1799  HOH1799     0.0000
   7502 H2         29.3480   11.7580   13.9140 H     1799  HOH1799     0.0000
   7503 O          23.0700   23.9380   12.5780 O.3   1800  HOH1800     0.0000
   7504 H1         23.5070   23.3380   11.9060 H     1800  HOH1800     0.0000
   7505 H2         22.5820   23.3910   13.2570 H     1800  HOH1800     0.0000
   7506 O           5.1810    4.3120   64.6360 O.3   1801  HOH1801     0.0000
   7507 H1          4.4400    4.9150   64.3360 H     1801  HOH1801     0.0000
   7508 H2          4.8130    3.5690   65.1930 H     1801  HOH1801     0.0000
   7509 O          32.1310   18.4900   54.6550 O.3   1802  HOH1802     0.0000
   7510 H1         32.6050   19.3440   54.8750 H     1802  HOH1802     0.0000
   7511 H2         31.4000   18.3250   55.3160 H     1802  HOH1802     0.0000
   7512 O           7.5120    9.5260   62.6840 O.3   1803  HOH1803     0.0000
   7513 H1          7.8870   10.3490   62.2540 H     1803  HOH1803     0.0000
   7514 H2          8.1810    8.7850   62.6440 H     1803  HOH1803     0.0000
   7515 O          19.9940   17.1910   71.2970 O.3   1804  HOH1804     0.0000
   7516 H1         19.1190   17.0430   71.7600 H     1804  HOH1804     0.0000
   7517 H2         20.0050   16.7040   70.4240 H     1804  HOH1804     0.0000
   7518 O           1.9780   30.6190   68.5130 O.3   1805  HOH1805     0.0000
   7519 H1          2.2550   31.4650   68.9710 H     1805  HOH1805     0.0000
   7520 H2          1.4940   30.8320   67.6650 H     1805  HOH1805     0.0000
   7521 O          13.7800   19.4100   54.9360 O.3   1806  HOH1806     0.0000
   7522 H1         12.7960   19.4650   54.7620 H     1806  HOH1806     0.0000
   7523 H2         14.1030   18.4770   54.7780 H     1806  HOH1806     0.0000
   7524 O          30.1900    1.9180    4.0780 O.3   1807  HOH1807     0.0000
   7525 H1         30.8500    1.2930    3.6590 H     1807  HOH1807     0.0000
   7526 H2         30.0870    1.7060    5.0490 H     1807  HOH1807     0.0000
   7527 O           1.5090   29.9920   16.6360 O.3   1808  HOH1808     0.0000
   7528 H1          1.0000   29.2150   16.2640 H     1808  HOH1808     0.0000
   7529 H2          1.1830   30.2050   17.5560 H     1808  HOH1808     0.0000
   7530 O          29.5750   23.0290   70.2920 O.3   1809  HOH1809     0.0000
   7531 H1         29.9600   23.7450   70.8760 H     1809  HOH1809     0.0000
   7532 H2         28.5910   22.9510   70.4510 H     1809  HOH1809     0.0000
   7533 O           9.4370   13.3570    3.7510 O.3   1810  HOH1810     0.0000
   7534 H1          9.8270   14.2630    3.5790 H     1810  HOH1810     0.0000
   7535 H2          8.7350   13.4150    4.4590 H     1810  HOH1810     0.0000
   7536 O          25.3530   11.0780   62.3910 O.3   1811  HOH1811     0.0000
   7537 H1         25.8550   11.9150   62.1670 H     1811  HOH1811     0.0000
   7538 H2         25.3580   10.9310   63.3790 H     1811  HOH1811     0.0000
   7539 O          15.9200   17.3460   57.1970 O.3   1812  HOH1812     0.0000
   7540 H1         15.1300   17.8450   56.8400 H     1812  HOH1812     0.0000
   7541 H2         16.2070   16.6470   56.5430 H     1812  HOH1812     0.0000
   7542 O           6.5730    8.8260   16.3420 O.3   1813  HOH1813     0.0000
   7543 H1          7.3800    8.2340   16.3280 H     1813  HOH1813     0.0000
   7544 H2          6.8500    9.7800   16.4420 H     1813  HOH1813     0.0000
   7545 O           8.9840   21.8120    8.9210 O.3   1814  HOH1814     0.0000
   7546 H1          9.0190   22.7870    8.6960 H     1814  HOH1814     0.0000
   7547 H2          8.0350   21.5210    9.0350 H     1814  HOH1814     0.0000
   7548 O          27.5650    8.9420   12.0410 O.3   1815  HOH1815     0.0000
   7549 H1         28.0170    9.7700   12.3740 H     1815  HOH1815     0.0000
   7550 H2         28.0040    8.6270   11.2010 H     1815  HOH1815     0.0000
   7551 O           4.2000   27.0850   63.0570 O.3   1816  HOH1816     0.0000
   7552 H1          5.1460   26.7580   63.0210 H     1816  HOH1816     0.0000
   7553 H2          4.1610   28.0470   62.7910 H     1816  HOH1816     0.0000
   7554 O           5.9800    8.5410    6.9570 O.3   1817  HOH1817     0.0000
   7555 H1          6.4040    7.6970    6.6250 H     1817  HOH1817     0.0000
   7556 H2          5.5530    9.0310    6.1980 H     1817  HOH1817     0.0000
   7557 O          13.4200   22.3940   20.1870 O.3   1818  HOH1818     0.0000
   7558 H1         12.4780   22.7220   20.2750 H     1818  HOH1818     0.0000
   7559 H2         13.5100   21.8310   19.3670 H     1818  HOH1818     0.0000
   7560 O           3.3450   24.6640   10.2010 O.3   1819  HOH1819     0.0000
   7561 H1          3.2820   23.8090    9.6850 H     1819  HOH1819     0.0000
   7562 H2          4.2820   25.0130   10.1710 H     1819  HOH1819     0.0000
   7563 O          22.1370    2.9250    3.4740 O.3   1820  HOH1820     0.0000
   7564 H1         21.9600    1.9990    3.8120 H     1820  HOH1820     0.0000
   7565 H2         21.2800    3.4330    3.4060 H     1820  HOH1820     0.0000
   7566 O           5.3890    1.8710   63.2080 O.3   1821  HOH1821     0.0000
   7567 H1          5.3890    1.0000   62.7150 H     1821  HOH1821     0.0000
   7568 H2          5.4020    1.7060   64.1930 H     1821  HOH1821     0.0000
   7569 O          20.8460    0.9990   17.4710 O.3   1822  HOH1822     0.0000
   7570 H1         21.8190    1.1810   17.3240 H     1822  HOH1822     0.0000
   7571 H2         20.3630    0.9960   16.5960 H     1822  HOH1822     0.0000
   7572 O           3.1250    6.8720   53.9490 O.3   1823  HOH1823     0.0000
   7573 H1          3.6200    7.4700   53.3180 H     1823  HOH1823     0.0000
   7574 H2          3.7640    6.4440   54.5870 H     1823  HOH1823     0.0000
   7575 O          15.3040   23.9170   71.5220 O.3   1824  HOH1824     0.0000
   7576 H1         14.5040   23.3650   71.7580 H     1824  HOH1824     0.0000
   7577 H2         15.4460   23.9080   70.5330 H     1824  HOH1824     0.0000
   7578 O          13.2940   15.5090   13.6060 O.3   1825  HOH1825     0.0000
   7579 H1         14.0490   14.8870   13.3930 H     1825  HOH1825     0.0000
   7580 H2         12.5810   15.0210   14.1080 H     1825  HOH1825     0.0000
   7581 O          15.8520   18.7030   63.6240 O.3   1826  HOH1826     0.0000
   7582 H1         14.9270   18.9250   63.9360 H     1826  HOH1826     0.0000
   7583 H2         15.9890   19.0390   62.6930 H     1826  HOH1826     0.0000
   7584 O          14.5830   15.0410   62.0690 O.3   1827  HOH1827     0.0000
   7585 H1         14.4100   15.7490   61.3830 H     1827  HOH1827     0.0000
   7586 H2         14.1940   14.1710   61.7680 H     1827  HOH1827     0.0000
   7587 O          13.3170   19.3140    6.6280 O.3   1828  HOH1828     0.0000
   7588 H1         14.0700   19.5160    7.2560 H     1828  HOH1828     0.0000
   7589 H2         13.5570   18.5380    6.0450 H     1828  HOH1828     0.0000
   7590 O           4.4520   31.2310   58.2750 O.3   1829  HOH1829     0.0000
   7591 H1          4.2960   32.1730   58.5770 H     1829  HOH1829     0.0000
   7592 H2          4.0130   31.0790   57.3900 H     1829  HOH1829     0.0000
   7593 O          13.5700   13.8400   16.3660 O.3   1830  HOH1830     0.0000
   7594 H1         12.6440   13.4660   16.2960 H     1830  HOH1830     0.0000
   7595 H2         13.9600   13.9580   15.4540 H     1830  HOH1830     0.0000
   7596 O          24.6880    3.9640   17.8330 O.3   1831  HOH1831     0.0000
   7597 H1         24.9460    4.9220   17.9700 H     1831  HOH1831     0.0000
   7598 H2         25.4500    3.4600   17.4280 H     1831  HOH1831     0.0000
   7599 O          20.7600   31.7340    9.0040 O.3   1832  HOH1832     0.0000
   7600 H1         21.3350   32.2380    8.3590 H     1832  HOH1832     0.0000
   7601 H2         20.2670   31.0070    8.5270 H     1832  HOH1832     0.0000
   7602 O          32.4650   24.0710   59.2900 O.3   1833  HOH1833     0.0000
   7603 H1         32.7590   24.0580   58.3330 H     1833  HOH1833     0.0000
   7604 H2         33.2600   24.1500   59.8900 H     1833  HOH1833     0.0000
   7605 O          31.1080   22.8270   20.3510 O.3   1834  HOH1834     0.0000
   7606 H1         31.4990   23.7260   20.1500 H     1834  HOH1834     0.0000
   7607 H2         31.6020   22.4010   21.1090 H     1834  HOH1834     0.0000
   7608 O          25.8400   16.4020   72.8950 O.3   1835  HOH1835     0.0000
   7609 H1         25.0210   15.8420   72.7630 H     1835  HOH1835     0.0000
   7610 H2         26.4630   16.2850   72.1230 H     1835  HOH1835     0.0000
   7611 O           7.7090   18.0530   12.4920 O.3   1836  HOH1836     0.0000
   7612 H1          7.4510   19.0060   12.6560 H     1836  HOH1836     0.0000
   7613 H2          7.5820   17.8260   11.5270 H     1836  HOH1836     0.0000
   7614 O          16.9700   20.2530    9.8570 O.3   1837  HOH1837     0.0000
   7615 H1         16.1410   20.6510   10.2520 H     1837  HOH1837     0.0000
   7616 H2         17.2450   19.4470   10.3800 H     1837  HOH1837     0.0000
   7617 O          28.7090   18.0680   68.2380 O.3   1838  HOH1838     0.0000
   7618 H1         28.8510   18.9080   68.7630 H     1838  HOH1838     0.0000
   7619 H2         28.3270   18.2860   67.3410 H     1838  HOH1838     0.0000
   7620 O          17.5580    1.5830   12.7120 O.3   1839  HOH1839     0.0000
   7621 H1         17.7310    0.9960   11.9190 H     1839  HOH1839     0.0000
   7622 H2         17.7290    2.5380   12.4730 H     1839  HOH1839     0.0000
   7623 O          18.8790   11.5880   14.6850 O.3   1840  HOH1840     0.0000
   7624 H1         18.8590   11.0340   13.8510 H     1840  HOH1840     0.0000
   7625 H2         19.7550   12.0650   14.7570 H     1840  HOH1840     0.0000
   7626 O          10.5370   15.0580   15.1460 O.3   1841  HOH1841     0.0000
   7627 H1         10.9290   14.8180   16.0360 H     1841  HOH1841     0.0000
   7628 H2          9.5600   14.8470   15.1360 H     1841  HOH1841     0.0000
   7629 O          16.0400   25.8480   50.7380 O.3   1842  HOH1842     0.0000
   7630 H1         16.0340   24.9290   51.1340 H     1842  HOH1842     0.0000
   7631 H2         15.2180   26.3440   51.0150 H     1842  HOH1842     0.0000
   7632 O          30.8010   31.2690   20.0710 O.3   1843  HOH1843     0.0000
   7633 H1         29.9040   31.2640   19.6270 H     1843  HOH1843     0.0000
   7634 H2         30.8320   31.9820   20.7700 H     1843  HOH1843     0.0000
   7635 O          12.5200   19.9160   64.6510 O.3   1844  HOH1844     0.0000
   7636 H1         13.3340   20.3940   64.3170 H     1844  HOH1844     0.0000
   7637 H2         12.7370   19.4180   65.4900 H     1844  HOH1844     0.0000
   7638 O          25.7610   32.2400   12.9570 O.3   1845  HOH1845     0.0000
   7639 H1         25.0860   32.0330   13.6670 H     1845  HOH1845     0.0000
   7640 H2         26.5390   31.6180   13.0340 H     1845  HOH1845     0.0000
   7641 O          18.0040   31.6260   15.1120 O.3   1846  HOH1846     0.0000
   7642 H1         17.0860   31.8840   14.8070 H     1846  HOH1846     0.0000
   7643 H2         18.2490   32.1430   15.9310 H     1846  HOH1846     0.0000
   7644 O          31.3030   32.1700   63.6140 O.3   1847  HOH1847     0.0000
   7645 H1         31.9270   32.2400   62.8340 H     1847  HOH1847     0.0000
   7646 H2         31.8160   32.2420   64.4690 H     1847  HOH1847     0.0000
   7647 O          29.5230    6.9690   56.7670 O.3   1848  HOH1848     0.0000
   7648 H1         30.1170    7.1480   55.9820 H     1848  HOH1848     0.0000
   7649 H2         30.0020    6.4030   57.4360 H     1848  HOH1848     0.0000
   7650 O          31.3100    5.7390    2.6520 O.3   1849  HOH1849     0.0000
   7651 H1         31.3840    6.7350    2.5770 H     1849  HOH1849     0.0000
   7652 H2         30.7660    5.3790    1.8940 H     1849  HOH1849     0.0000
   7653 O          15.2640    8.7540   62.4090 O.3   1850  HOH1850     0.0000
   7654 H1         15.9130    8.0610   62.0920 H     1850  HOH1850     0.0000
   7655 H2         14.9270    8.5160   63.3190 H     1850  HOH1850     0.0000
   7656 O          17.9740   22.5180   56.9360 O.3   1851  HOH1851     0.0000
   7657 H1         17.5590   22.1510   57.7700 H     1851  HOH1851     0.0000
   7658 H2         18.4440   23.3770   57.1370 H     1851  HOH1851     0.0000
   7659 O          20.8500   29.9350   54.0100 O.3   1852  HOH1852     0.0000
   7660 H1         21.3380   30.7500   53.6960 H     1852  HOH1852     0.0000
   7661 H2         20.3950   30.1220   54.8800 H     1852  HOH1852     0.0000
   7662 O          21.1140    5.9460   67.1890 O.3   1853  HOH1853     0.0000
   7663 H1         22.0830    6.1840   67.1150 H     1853  HOH1853     0.0000
   7664 H2         20.8890    5.7190   68.1350 H     1853  HOH1853     0.0000
   7665 O          10.6750   25.6800   17.6450 O.3   1854  HOH1854     0.0000
   7666 H1         10.3590   26.6150   17.4770 H     1854  HOH1854     0.0000
   7667 H2         10.7230   25.5070   18.6280 H     1854  HOH1854     0.0000
   7668 O          32.0410   31.3730    6.0950 O.3   1855  HOH1855     0.0000
   7669 H1         32.1900   32.1840    6.6620 H     1855  HOH1855     0.0000
   7670 H2         32.3510   30.5560    6.5800 H     1855  HOH1855     0.0000
   7671 O          32.1310   13.9970   69.2610 O.3   1856  HOH1856     0.0000
   7672 H1         31.2250   14.3760   69.4560 H     1856  HOH1856     0.0000
   7673 H2         32.0900   12.9980   69.2630 H     1856  HOH1856     0.0000
   7674 O          25.7770   13.0920   73.9990 O.3   1857  HOH1857     0.0000
   7675 H1         25.7260   13.8370   73.3320 H     1857  HOH1857     0.0000
   7676 H2         26.2600   12.3120   73.6040 H     1857  HOH1857     0.0000
   7677 O          14.6110   31.0660    3.1350 O.3   1858  HOH1858     0.0000
   7678 H1         13.9430   30.4000    2.7990 H     1858  HOH1858     0.0000
   7679 H2         14.1630   31.7230    3.7400 H     1858  HOH1858     0.0000
   7680 O          30.3930   26.7240   17.5200 O.3   1859  HOH1859     0.0000
   7681 H1         30.0420   27.6190   17.2410 H     1859  HOH1859     0.0000
   7682 H2         31.1240   26.8370   18.1920 H     1859  HOH1859     0.0000
   7683 O           4.3280   13.3260   19.7990 O.3   1860  HOH1860     0.0000
   7684 H1          4.4990   12.3490   19.9310 H     1860  HOH1860     0.0000
   7685 H2          4.6470   13.6100   18.8960 H     1860  HOH1860     0.0000
   7686 O          26.8280    9.5870    1.1410 O.3   1861  HOH1861     0.0000
   7687 H1         26.0820    9.2400    1.7110 H     1861  HOH1861     0.0000
   7688 H2         27.5280    8.8830    1.0290 H     1861  HOH1861     0.0000
   7689 O          31.3950    6.1640   20.2450 O.3   1862  HOH1862     0.0000
   7690 H1         31.0430    7.0520   19.9450 H     1862  HOH1862     0.0000
   7691 H2         31.3090    6.0800   21.2370 H     1862  HOH1862     0.0000
   7692 O          32.2630   25.6720   22.2290 O.3   1863  HOH1863     0.0000
   7693 H1         31.4230   25.5720   21.6940 H     1863  HOH1863     0.0000
   7694 H2         32.2960   24.9770   22.9470 H     1863  HOH1863     0.0000
   7695 O          31.2480    3.2620    1.5390 O.3   1864  HOH1864     0.0000
   7696 H1         30.7080    2.6130    1.0010 H     1864  HOH1864     0.0000
   7697 H2         31.7050    2.7870    2.2900 H     1864  HOH1864     0.0000
   7698 O           3.8700   23.6390   52.8750 O.3   1865  HOH1865     0.0000
   7699 H1          4.4520   23.9820   53.6130 H     1865  HOH1865     0.0000
   7700 H2          4.3420   23.7270   51.9980 H     1865  HOH1865     0.0000
   7701 O           6.3730   11.9690   12.7190 O.3   1866  HOH1866     0.0000
   7702 H1          7.2520   12.3370   12.4120 H     1866  HOH1866     0.0000
   7703 H2          6.3270   10.9900   12.5270 H     1866  HOH1866     0.0000
   7704 O          16.6350    7.0620   12.9650 O.3   1867  HOH1867     0.0000
   7705 H1         16.4490    7.4340   13.8760 H     1867  HOH1867     0.0000
   7706 H2         16.0250    6.2930   12.7800 H     1867  HOH1867     0.0000
   7707 O          30.5340    2.0030   53.7370 O.3   1868  HOH1868     0.0000
   7708 H1         30.3580    2.9880   53.7830 H     1868  HOH1868     0.0000
   7709 H2         30.2560    1.5670   54.5920 H     1868  HOH1868     0.0000
   7710 O          31.6700   10.3510   66.6940 O.3   1869  HOH1869     0.0000
   7711 H1         31.6650    9.6660   67.4240 H     1869  HOH1869     0.0000
   7712 H2         31.3010   11.2150   67.0350 H     1869  HOH1869     0.0000
   7713 O          31.3430   13.0830   12.9880 O.3   1870  HOH1870     0.0000
   7714 H1         31.0320   12.2270   12.5710 H     1870  HOH1870     0.0000
   7715 H2         31.3220   13.8190   12.3120 H     1870  HOH1870     0.0000
   7716 O          27.9120    5.5780   58.6830 O.3   1871  HOH1871     0.0000
   7717 H1         27.2200    4.9300   59.0050 H     1871  HOH1871     0.0000
   7718 H2         28.0070    5.5120   57.6910 H     1871  HOH1871     0.0000
   7719 O           6.5210    5.9110   62.9600 O.3   1872  HOH1872     0.0000
   7720 H1          5.9450    5.1920   62.5680 H     1872  HOH1872     0.0000
   7721 H2          6.2430    6.0960   63.9020 H     1872  HOH1872     0.0000
   7722 O          27.0260   31.7040   51.0220 O.3   1873  HOH1873     0.0000
   7723 H1         27.2280   30.7570   51.2790 H     1873  HOH1873     0.0000
   7724 H2         26.8110   32.2400   51.8380 H     1873  HOH1873     0.0000
   7725 O          10.6860    3.3980   68.4780 O.3   1874  HOH1874     0.0000
   7726 H1          9.9250    2.9870   67.9740 H     1874  HOH1874     0.0000
   7727 H2         10.5520    3.2740   69.4610 H     1874  HOH1874     0.0000
   7728 O           7.7010   22.6020   56.2000 O.3   1875  HOH1875     0.0000
   7729 H1          7.6120   21.6400   55.9380 H     1875  HOH1875     0.0000
   7730 H2          7.3250   22.7440   57.1150 H     1875  HOH1875     0.0000
   7731 O           6.9610   27.1860   22.2040 O.3   1876  HOH1876     0.0000
   7732 H1          7.6140   27.7080   21.6530 H     1876  HOH1876     0.0000
   7733 H2          7.0800   26.2070   22.0380 H     1876  HOH1876     0.0000
   7734 O           6.2550    3.4270   61.2260 O.3   1877  HOH1877     0.0000
   7735 H1          5.2870    3.2760   61.4300 H     1877  HOH1877     0.0000
   7736 H2          6.3730    3.6200   60.2520 H     1877  HOH1877     0.0000
   7737 O          14.8580   19.1170    9.3210 O.3   1878  HOH1878     0.0000
   7738 H1         14.3750   18.2720    9.0900 H     1878  HOH1878     0.0000
   7739 H2         14.2050   19.8670    9.4220 H     1878  HOH1878     0.0000
   7740 O           9.7540    2.1310   62.6240 O.3   1879  HOH1879     0.0000
   7741 H1          9.8750    3.0480   63.0080 H     1879  HOH1879     0.0000
   7742 H2          9.4260    2.1960   61.6820 H     1879  HOH1879     0.0000
   7743 O          11.2110    5.1600   71.4460 O.3   1880  HOH1880     0.0000
   7744 H1         11.2010    5.1940   70.4460 H     1880  HOH1880     0.0000
   7745 H2         10.3970    5.6100   71.8110 H     1880  HOH1880     0.0000
   7746 O           1.8310   23.5270   23.6210 O.3   1881  HOH1881     0.0000
   7747 H1          2.0380   23.9730   22.7490 H     1881  HOH1881     0.0000
   7748 H2          2.6730   23.1830   24.0360 H     1881  HOH1881     0.0000
   7749 O          33.2180   11.4150   10.6440 O.3   1882  HOH1882     0.0000
   7750 H1         32.2790   11.7040   10.8370 H     1882  HOH1882     0.0000
   7751 H2         33.2620   10.9690    9.7510 H     1882  HOH1882     0.0000
   7752 O          14.8140   27.3790   72.2010 O.3   1883  HOH1883     0.0000
   7753 H1         15.3370   27.9470   71.5630 H     1883  HOH1883     0.0000
   7754 H2         14.7390   27.8390   73.0850 H     1883  HOH1883     0.0000
   7755 O          11.3100   25.1590   73.4500 O.3   1884  HOH1884     0.0000
   7756 H1         12.0780   24.8250   73.9990 H     1884  HOH1884     0.0000
   7757 H2         10.6050   24.4550   73.3860 H     1884  HOH1884     0.0000
   7758 O           6.6860   19.7720    1.4480 O.3   1885  HOH1885     0.0000
   7759 H1          5.9630   20.3000    1.0000 H     1885  HOH1885     0.0000
   7760 H2          6.3540   18.8560    1.6690 H     1885  HOH1885     0.0000
   7761 O          29.4410   17.4080   10.8480 O.3   1886  HOH1886     0.0000
   7762 H1         28.8890   16.6840   10.4330 H     1886  HOH1886     0.0000
   7763 H2         29.1330   17.5790   11.7840 H     1886  HOH1886     0.0000
   7764 O           1.1030   18.3840   19.4310 O.3   1887  HOH1887     0.0000
   7765 H1          0.9990   17.6080   18.8070 H     1887  HOH1887     0.0000
   7766 H2          1.0120   19.2420   18.9260 H     1887  HOH1887     0.0000
   7767 O          12.6030   29.1520   68.2820 O.3   1888  HOH1888     0.0000
   7768 H1         11.9950   28.9560   69.0530 H     1888  HOH1888     0.0000
   7769 H2         12.1450   29.7550   67.6300 H     1888  HOH1888     0.0000
   7770 O           9.2780   29.7260   58.5330 O.3   1889  HOH1889     0.0000
   7771 H1         10.0460   29.7810   57.8930 H     1889  HOH1889     0.0000
   7772 H2          9.6160   29.7300   59.4730 H     1889  HOH1889     0.0000
   7773 O           1.0530   21.1380   14.7440 O.3   1890  HOH1890     0.0000
   7774 H1          1.9880   21.2050   14.3920 H     1890  HOH1890     0.0000
   7775 H2          1.0040   20.4370   15.4540 H     1890  HOH1890     0.0000
   7776 O          21.2660    2.5860   18.9320 O.3   1891  HOH1891     0.0000
   7777 H1         20.7030    3.1590   19.5300 H     1891  HOH1891     0.0000
   7778 H2         21.7700    3.1580   18.2860 H     1891  HOH1891     0.0000
   7779 O           4.7980   28.8620    8.6120 O.3   1892  HOH1892     0.0000
   7780 H1          5.3610   29.6720    8.7820 H     1892  HOH1892     0.0000
   7781 H2          5.1170   28.3910    7.7900 H     1892  HOH1892     0.0000
   7782 O          15.0580   19.4890    1.0050 O.3   1893  HOH1893     0.0000
   7783 H1         15.8030   20.0440    1.3790 H     1893  HOH1893     0.0000
   7784 H2         15.2960   18.5200    1.0550 H     1893  HOH1893     0.0000
   7785 O          22.1870   15.1110    3.2010 O.3   1894  HOH1894     0.0000
   7786 H1         21.6680   15.9670    3.2050 H     1894  HOH1894     0.0000
   7787 H2         22.4880   14.8900    4.1280 H     1894  HOH1894     0.0000
   7788 O           6.0120    4.1970   13.8490 O.3   1895  HOH1895     0.0000
   7789 H1          6.2620    4.9190   13.2030 H     1895  HOH1895     0.0000
   7790 H2          6.6080    3.4040   13.7240 H     1895  HOH1895     0.0000
   7791 O          24.9210    5.8900    6.7830 O.3   1896  HOH1896     0.0000
   7792 H1         24.5140    5.0490    7.1420 H     1896  HOH1896     0.0000
   7793 H2         25.9130    5.7890    6.7200 H     1896  HOH1896     0.0000
   7794 O          17.4090   32.1010   61.9890 O.3   1897  HOH1897     0.0000
   7795 H1         16.5490   32.2650   61.5020 H     1897  HOH1897     0.0000
   7796 H2         17.2290   31.9670   62.9620 H     1897  HOH1897     0.0000
   7797 O           8.2180   27.9570   13.4750 O.3   1898  HOH1898     0.0000
   7798 H1          8.3570   26.9670   13.4280 H     1898  HOH1898     0.0000
   7799 H2          8.3360   28.2740   14.4160 H     1898  HOH1898     0.0000
   7800 O          25.0190   30.8250   15.9340 O.3   1899  HOH1899     0.0000
   7801 H1         25.5260   31.6760   15.7900 H     1899  HOH1899     0.0000
   7802 H2         25.2230   30.4550   16.8400 H     1899  HOH1899     0.0000
   7803 O          29.4860   17.0140   16.8500 O.3   1900  HOH1900     0.0000
   7804 H1         28.8420   16.5830   16.2160 H     1900  HOH1900     0.0000
   7805 H2         28.9900   17.5690   17.5170 H     1900  HOH1900     0.0000
   7806 O          26.9090   16.4120   69.4450 O.3   1901  HOH1901     0.0000
   7807 H1         26.8360   17.1380   70.1300 H     1901  HOH1901     0.0000
   7808 H2         26.7890   16.7920   68.5290 H     1901  HOH1901     0.0000
   7809 O          27.8600    8.0830   16.3580 O.3   1902  HOH1902     0.0000
   7810 H1         28.6030    8.1580   15.6920 H     1902  HOH1902     0.0000
   7811 H2         27.9620    8.7840   17.0630 H     1902  HOH1902     0.0000
   7812 O          20.5960   22.5800    3.9720 O.3   1903  HOH1903     0.0000
   7813 H1         20.2800   23.5220    4.0940 H     1903  HOH1903     0.0000
   7814 H2         20.0000   22.1010    3.3290 H     1903  HOH1903     0.0000
   7815 O          26.1250    5.0250   13.4880 O.3   1904  HOH1904     0.0000
   7816 H1         25.5870    5.3030   12.6910 H     1904  HOH1904     0.0000
   7817 H2         26.9640    4.5690   13.1930 H     1904  HOH1904     0.0000
   7818 O          31.1600   29.4290   13.9900 O.3   1905  HOH1905     0.0000
   7819 H1         31.2880   28.5080   13.6190 H     1905  HOH1905     0.0000
   7820 H2         30.3650   29.4460   14.5950 H     1905  HOH1905     0.0000
   7821 O           6.5220    2.0230   66.8810 O.3   1906  HOH1906     0.0000
   7822 H1          6.8920    2.7930   67.4020 H     1906  HOH1906     0.0000
   7823 H2          6.7060    2.1490   65.9070 H     1906  HOH1906     0.0000
   7824 O           3.7600   19.7580   58.7380 O.3   1907  HOH1907     0.0000
   7825 H1          3.9640   19.5800   57.7740 H     1907  HOH1907     0.0000
   7826 H2          4.5220   19.4560   59.3100 H     1907  HOH1907     0.0000
   7827 O           6.3160   25.3730   58.6250 O.3   1908  HOH1908     0.0000
   7828 H1          5.3930   25.4880   58.9930 H     1908  HOH1908     0.0000
   7829 H2          6.2720   24.9890   57.7040 H     1908  HOH1908     0.0000
   7830 O          10.5460   28.9790   72.8220 O.3   1909  HOH1909     0.0000
   7831 H1         11.0930   28.6760   72.0400 H     1909  HOH1909     0.0000
   7832 H2          9.6550   29.3050   72.5100 H     1909  HOH1909     0.0000
   7833 O          11.5350    8.2900    2.0950 O.3   1910  HOH1910     0.0000
   7834 H1         11.9200    8.5880    1.2210 H     1910  HOH1910     0.0000
   7835 H2         12.1270    8.5780    2.8460 H     1910  HOH1910     0.0000
   7836 O          28.7210    9.9410   54.3340 O.3   1911  HOH1911     0.0000
   7837 H1         27.8320   10.3940   54.4220 H     1911  HOH1911     0.0000
   7838 H2         28.5970    9.0090   53.9940 H     1911  HOH1911     0.0000
   7839 O          17.4570    5.5370   21.6490 O.3   1912  HOH1912     0.0000
   7840 H1         16.8650    4.8630   22.0930 H     1912  HOH1912     0.0000
   7841 H2         17.1740    6.4610   21.9040 H     1912  HOH1912     0.0000
   7842 O          21.8530   29.1090   65.8470 O.3   1913  HOH1913     0.0000
   7843 H1         21.0020   29.3970   65.4040 H     1913  HOH1913     0.0000
   7844 H2         21.7590   29.1710   66.8400 H     1913  HOH1913     0.0000
   7845 O           7.0060   13.0750    9.4620 O.3   1914  HOH1914     0.0000
   7846 H1          6.4880   12.4530   10.0500 H     1914  HOH1914     0.0000
   7847 H2          6.3890   13.7380    9.0380 H     1914  HOH1914     0.0000
   7848 O          25.6280   29.8760   10.6710 O.3   1915  HOH1915     0.0000
   7849 H1         26.3090   30.2660   11.2930 H     1915  HOH1915     0.0000
   7850 H2         24.9790   29.3150   11.1840 H     1915  HOH1915     0.0000
   7851 O          30.1900   25.2990    1.1660 O.3   1916  HOH1916     0.0000
   7852 H1         30.8380   24.5560    0.9960 H     1916  HOH1916     0.0000
   7853 H2         30.0900   25.4470    2.1490 H     1916  HOH1916     0.0000
   7854 O          14.2090   12.7470    7.2780 O.3   1917  HOH1917     0.0000
   7855 H1         14.2640   13.1420    6.3590 H     1917  HOH1917     0.0000
   7856 H2         13.3850   13.0740    7.7400 H     1917  HOH1917     0.0000
   7857 O          18.2810   11.7810   53.1420 O.3   1918  HOH1918     0.0000
   7858 H1         18.7910   11.1790   52.5260 H     1918  HOH1918     0.0000
   7859 H2         17.9040   11.2520   53.9010 H     1918  HOH1918     0.0000
   7860 O          22.8960    6.0380   73.5050 O.3   1919  HOH1919     0.0000
   7861 H1         23.1300    6.8750   74.0000 H     1919  HOH1919     0.0000
   7862 H2         22.7300    6.2450   72.5420 H     1919  HOH1919     0.0000
   7863 O          10.0530   14.4400   21.4200 O.3   1920  HOH1920     0.0000
   7864 H1         10.5010   14.4490   20.5240 H     1920  HOH1920     0.0000
   7865 H2         10.7390   14.3870   22.1440 H     1920  HOH1920     0.0000
   7866 O           7.5980    1.5190   19.0480 O.3   1921  HOH1921     0.0000
   7867 H1          8.1300    2.3640   18.9800 H     1921  HOH1921     0.0000
   7868 H2          7.5070    1.2480   20.0060 H     1921  HOH1921     0.0000
   7869 O          24.4820    8.9700   62.8590 O.3   1922  HOH1922     0.0000
   7870 H1         25.2140    8.3020   62.7140 H     1922  HOH1922     0.0000
   7871 H2         23.5980    8.5060   62.8910 H     1922  HOH1922     0.0000
   7872 O          11.1890    2.0530   19.8190 O.3   1923  HOH1923     0.0000
   7873 H1         11.3900    1.2300   20.3520 H     1923  HOH1923     0.0000
   7874 H2         10.7490    1.8030   18.9570 H     1923  HOH1923     0.0000
   7875 O          28.3280   15.4730   18.0670 O.3   1924  HOH1924     0.0000
   7876 H1         27.7420   16.0960   18.5880 H     1924  HOH1924     0.0000
   7877 H2         27.7960   15.0200   17.3530 H     1924  HOH1924     0.0000
   7878 O          20.1130    6.5500    8.2090 O.3   1925  HOH1925     0.0000
   7879 H1         19.8860    5.6170    8.4940 H     1925  HOH1925     0.0000
   7880 H2         19.9800    7.1810    8.9720 H     1925  HOH1925     0.0000
   7881 O          29.1600   23.3850   21.2910 O.3   1926  HOH1926     0.0000
   7882 H1         29.4500   24.2030   20.7930 H     1926  HOH1926     0.0000
   7883 H2         29.7070   23.2790   22.1210 H     1926  HOH1926     0.0000
   7884 O          19.0690   23.9380   62.3330 O.3   1927  HOH1927     0.0000
   7885 H1         19.9780   23.9440   61.9130 H     1927  HOH1927     0.0000
   7886 H2         19.1480   24.0820   63.3190 H     1927  HOH1927     0.0000
   7887 O          25.9680   25.8040   66.7490 O.3   1928  HOH1928     0.0000
   7888 H1         25.6770   26.7520   66.6110 H     1928  HOH1928     0.0000
   7889 H2         25.6280   25.4680   67.6270 H     1928  HOH1928     0.0000
   7890 O          28.0530   21.3760   68.7020 O.3   1929  HOH1929     0.0000
   7891 H1         27.5680   20.8930   67.9710 H     1929  HOH1929     0.0000
   7892 H2         27.6320   21.1700   69.5850 H     1929  HOH1929     0.0000
   7893 O          17.3670   17.4690   15.3020 O.3   1930  HOH1930     0.0000
   7894 H1         17.7740   17.2780   14.4070 H     1930  HOH1930     0.0000
   7895 H2         18.0860   17.6510   15.9720 H     1930  HOH1930     0.0000
   7896 O          22.2960   20.0440   17.9360 O.3   1931  HOH1931     0.0000
   7897 H1         22.9480   20.4910   17.3220 H     1931  HOH1931     0.0000
   7898 H2         22.6680   20.0080   18.8630 H     1931  HOH1931     0.0000
   7899 O          32.4170   14.9600    8.8340 O.3   1932  HOH1932     0.0000
   7900 H1         33.2610   15.4140    8.5450 H     1932  HOH1932     0.0000
   7901 H2         32.5490   14.5280    9.7250 H     1932  HOH1932     0.0000
   7902 O          10.6730   11.2800   53.0960 O.3   1933  HOH1933     0.0000
   7903 H1          9.8330   11.0300   53.5800 H     1933  HOH1933     0.0000
   7904 H2         11.4490   11.2560   53.7240 H     1933  HOH1933     0.0000
   7905 O           7.6160    2.5870   62.8700 O.3   1934  HOH1934     0.0000
   7906 H1          7.4870    1.6440   62.5610 H     1934  HOH1934     0.0000
   7907 H2          7.3410    2.6740   63.8270 H     1934  HOH1934     0.0000
   7908 O          29.0460   17.1320   70.2500 O.3   1935  HOH1935     0.0000
   7909 H1         29.9450   17.1510   69.8100 H     1935  HOH1935     0.0000
   7910 H2         29.1260   16.7570   71.1730 H     1935  HOH1935     0.0000
   7911 O           3.6650   17.4390   58.2290 O.3   1936  HOH1936     0.0000
   7912 H1          3.7350   16.6660   57.5970 H     1936  HOH1936     0.0000
   7913 H2          2.7050   17.6810   58.3670 H     1936  HOH1936     0.0000
   7914 O           8.0270   30.3120   10.4830 O.3   1937  HOH1937     0.0000
   7915 H1          8.5210   31.1220   10.8040 H     1937  HOH1937     0.0000
   7916 H2          7.0460   30.4290   10.6300 H     1937  HOH1937     0.0000
   7917 O          12.8620   19.6010    1.0740 O.3   1938  HOH1938     0.0000
   7918 H1         11.8780   19.4370    0.9960 H     1938  HOH1938     0.0000
   7919 H2         13.1060   19.7670    2.0290 H     1938  HOH1938     0.0000
   7920 O          22.1690    2.1290   57.4770 O.3   1939  HOH1939     0.0000
   7921 H1         22.7860    2.8490   57.1550 H     1939  HOH1939     0.0000
   7922 H2         22.4460    1.8240   58.3880 H     1939  HOH1939     0.0000
   7923 O          27.8750   19.9690   65.9990 O.3   1940  HOH1940     0.0000
   7924 H1         27.3850   20.7660   65.6410 H     1940  HOH1940     0.0000
   7925 H2         27.6890   19.1700   65.4290 H     1940  HOH1940     0.0000
   7926 O          14.8430   15.0600   71.0280 O.3   1941  HOH1941     0.0000
   7927 H1         15.3930   15.3760   71.8020 H     1941  HOH1941     0.0000
   7928 H2         15.3170   14.3210   70.5500 H     1941  HOH1941     0.0000
   7929 O           1.9170   16.5200    9.3030 O.3   1942  HOH1942     0.0000
   7930 H1          1.1910   15.8590    9.1100 H     1942  HOH1942     0.0000
   7931 H2          2.0720   17.1000    8.5040 H     1942  HOH1942     0.0000
   7932 O          23.4530    4.2960   70.2820 O.3   1943  HOH1943     0.0000
   7933 H1         23.0250    4.5710   71.1440 H     1943  HOH1943     0.0000
   7934 H2         24.0070    3.4760   70.4220 H     1943  HOH1943     0.0000
   7935 O           6.6730   27.7880   10.9200 O.3   1944  HOH1944     0.0000
   7936 H1          7.4670   28.1850   10.4580 H     1944  HOH1944     0.0000
   7937 H2          6.9560   27.3550   11.7750 H     1944  HOH1944     0.0000
   7938 O           8.0780   24.9090   73.5230 O.3   1945  HOH1945     0.0000
   7939 H1          7.6250   25.6500   74.0220 H     1945  HOH1945     0.0000
   7940 H2          7.4010   24.3740   73.0180 H     1945  HOH1945     0.0000
   7941 O          27.6280   27.9430   14.2710 O.3   1946  HOH1946     0.0000
   7942 H1         28.1260   28.7310   13.9060 H     1946  HOH1946     0.0000
   7943 H2         27.9870   27.7000   15.1720 H     1946  HOH1946     0.0000
   7944 O          30.4490    4.8600   16.4330 O.3   1947  HOH1947     0.0000
   7945 H1         29.5050    4.7510   16.7480 H     1947  HOH1947     0.0000
   7946 H2         30.6500    4.1920   15.7180 H     1947  HOH1947     0.0000
   7947 O           4.8190   14.1400   22.0300 O.3   1948  HOH1948     0.0000
   7948 H1          3.8520   13.9420   21.8570 H     1948  HOH1948     0.0000
   7949 H2          5.3590   13.3040   21.9380 H     1948  HOH1948     0.0000
   7950 O          15.3840   32.2200   71.8200 O.3   1949  HOH1949     0.0000
   7951 H1         14.4530   32.1010   72.1670 H     1949  HOH1949     0.0000
   7952 H2         15.5920   31.5090   71.1490 H     1949  HOH1949     0.0000
   7953 O           6.5490   25.0190   61.7090 O.3   1950  HOH1950     0.0000
   7954 H1          6.1490   25.7530   61.1580 H     1950  HOH1950     0.0000
   7955 H2          6.8740   25.3830   62.5810 H     1950  HOH1950     0.0000
   7956 O          23.2110    8.0480   18.5340 O.3   1951  HOH1951     0.0000
   7957 H1         23.6280    7.1380   18.5180 H     1951  HOH1951     0.0000
   7958 H2         22.7950    8.2180   19.4260 H     1951  HOH1951     0.0000
   7959 O          29.6160   18.6740    1.1080 O.3   1952  HOH1952     0.0000
   7960 H1         29.0290   18.1250    1.7050 H     1952  HOH1952     0.0000
   7961 H2         29.8570   19.5310    1.5610 H     1952  HOH1952     0.0000
   7962 O          28.7310    5.2910   64.7590 O.3   1953  HOH1953     0.0000
   7963 H1         29.3480    6.0500   64.5470 H     1953  HOH1953     0.0000
   7964 H2         28.4450    4.8370   63.9160 H     1953  HOH1953     0.0000
   7965 O          22.5680    6.8970   57.5530 O.3   1954  HOH1954     0.0000
   7966 H1         23.4810    7.0800   57.1850 H     1954  HOH1954     0.0000
   7967 H2         21.9120    6.7970   56.8060 H     1954  HOH1954     0.0000
   7968 O          23.4770    1.1490   12.7370 O.3   1955  HOH1955     0.0000
   7969 H1         23.8070    1.0000   13.6710 H     1955  HOH1955     0.0000
   7970 H2         22.4910    0.9910   12.6940 H     1955  HOH1955     0.0000
   7971 O          33.2600   14.5220    4.8480 O.3   1956  HOH1956     0.0000
   7972 H1         32.9010   13.7110    4.3830 H     1956  HOH1956     0.0000
   7973 H2         33.2750   14.3700    5.8360 H     1956  HOH1956     0.0000
   7974 O          29.0430    8.3160   71.5100 O.3   1957  HOH1957     0.0000
   7975 H1         29.9420    8.3350   71.9500 H     1957  HOH1957     0.0000
   7976 H2         29.1270    7.9740   70.5750 H     1957  HOH1957     0.0000
   7977 O          30.6140   10.8160   64.6700 O.3   1958  HOH1958     0.0000
   7978 H1         31.3450   10.3580   64.1620 H     1958  HOH1958     0.0000
   7979 H2         30.0520   11.3560   64.0450 H     1958  HOH1958     0.0000
   7980 O          23.2470   14.4930   56.2630 O.3   1959  HOH1959     0.0000
   7981 H1         23.8330   14.9610   56.9250 H     1959  HOH1959     0.0000
   7982 H2         23.4060   14.8580   55.3470 H     1959  HOH1959     0.0000
   7983 O          10.6570    7.6560   13.1890 O.3   1960  HOH1960     0.0000
   7984 H1          9.7200    7.9140   13.4320 H     1960  HOH1960     0.0000
   7985 H2         10.7180    6.6660   13.0680 H     1960  HOH1960     0.0000
   7986 O          14.1700    2.7050   11.2380 O.3   1961  HOH1961     0.0000
   7987 H1         13.1830    2.5850   11.1180 H     1961  HOH1961     0.0000
   7988 H2         14.3540    3.1920   12.0910 H     1961  HOH1961     0.0000
   7989 O           1.0000   24.5580    9.8350 O.3   1962  HOH1962     0.0000
   7990 H1          1.1530   23.6460   10.2170 H     1962  HOH1962     0.0000
   7991 H2          1.3840   24.6120    8.9140 H     1962  HOH1962     0.0000
   7992 O           3.1900   16.4070    4.4860 O.3   1963  HOH1963     0.0000
   7993 H1          3.2000   16.0210    3.5620 H     1963  HOH1963     0.0000
   7994 H2          2.8290   17.3390    4.4620 H     1963  HOH1963     0.0000
   7995 O          27.7210   32.0790    1.7560 O.3   1964  HOH1964     0.0000
   7996 H1         27.0850   32.2400    0.9990 H     1964  HOH1964     0.0000
   7997 H2         27.2230   32.0560    2.6220 H     1964  HOH1964     0.0000
   7998 O          20.4320   12.6580   69.3260 O.3   1965  HOH1965     0.0000
   7999 H1         21.1440   12.0170   69.0350 H     1965  HOH1965     0.0000
   8000 H2         20.4530   12.7630   70.3200 H     1965  HOH1965     0.0000
   8001 O          27.4880   27.0910   53.0860 O.3   1966  HOH1966     0.0000
   8002 H1         28.1650   26.6420   53.6710 H     1966  HOH1966     0.0000
   8003 H2         27.1870   26.4640   52.3690 H     1966  HOH1966     0.0000
   8004 O          27.6580    6.5490   19.2480 O.3   1967  HOH1967     0.0000
   8005 H1         28.0420    7.2420   18.6350 H     1967  HOH1967     0.0000
   8006 H2         26.6650    6.6510   19.2990 H     1967  HOH1967     0.0000
   8007 O          33.1360   13.0430    7.5850 O.3   1968  HOH1968     0.0000
   8008 H1         33.2620   12.8110    8.5510 H     1968  HOH1968     0.0000
   8009 H2         32.1850   13.2960    7.4150 H     1968  HOH1968     0.0000
   8010 O          22.2350   28.6280   13.1750 O.3   1969  HOH1969     0.0000
   8011 H1         21.2430   28.5140   13.2520 H     1969  HOH1969     0.0000
   8012 H2         22.6120   27.9330   12.5650 H     1969  HOH1969     0.0000
   8013 O          28.9330   12.4630   16.6800 O.3   1970  HOH1970     0.0000
   8014 H1         29.9100   12.3150   16.8420 H     1970  HOH1970     0.0000
   8015 H2         28.7910   13.3430   16.2290 H     1970  HOH1970     0.0000
   8016 O          19.7330   29.2310   73.9950 O.3   1971  HOH1971     0.0000
   8017 H1         20.0780   30.1710   74.0000 H     1971  HOH1971     0.0000
   8018 H2         19.0780   29.1120   73.2500 H     1971  HOH1971     0.0000
   8019 O          19.2300   20.8230   64.8740 O.3   1972  HOH1972     0.0000
   8020 H1         19.7580   20.2530   65.5050 H     1972  HOH1972     0.0000
   8021 H2         18.5780   21.3820   65.3830 H     1972  HOH1972     0.0000
   8022 O          16.9660    6.0240    8.5770 O.3   1973  HOH1973     0.0000
   8023 H1         16.9490    5.0230    8.5620 H     1973  HOH1973     0.0000
   8024 H2         17.8340    6.3570    8.2100 H     1973  HOH1973     0.0000
   8025 O          21.8020   20.9270   64.4090 O.3   1974  HOH1974     0.0000
   8026 H1         22.5470   20.8470   63.7450 H     1974  HOH1974     0.0000
   8027 H2         22.1480   20.7580   65.3320 H     1974  HOH1974     0.0000
   8028 O          11.7300   32.1110   60.7510 O.3   1975  HOH1975     0.0000
   8029 H1         12.6470   32.2390   60.3720 H     1975  HOH1975     0.0000
   8030 H2         11.4190   31.1760   60.5840 H     1975  HOH1975     0.0000
   8031 O          16.2790   11.4470   18.7410 O.3   1976  HOH1976     0.0000
   8032 H1         17.1720   11.8910   18.6570 H     1976  HOH1976     0.0000
   8033 H2         16.3620   10.6140   19.2870 H     1976  HOH1976     0.0000
   8034 O          16.3840   18.0090   11.8160 O.3   1977  HOH1977     0.0000
   8035 H1         15.6090   18.6390   11.8890 H     1977  HOH1977     0.0000
   8036 H2         16.3590   17.3500   12.5680 H     1977  HOH1977     0.0000
   8037 O          15.5630   26.0310   62.5130 O.3   1978  HOH1978     0.0000
   8038 H1         14.6550   25.8480   62.8930 H     1978  HOH1978     0.0000
   8039 H2         15.9180   26.8910   62.8780 H     1978  HOH1978     0.0000
   8040 O          23.5000   27.3410    5.6760 O.3   1979  HOH1979     0.0000
   8041 H1         22.6050   27.6870    5.9620 H     1979  HOH1979     0.0000
   8042 H2         23.9890   28.0440    5.1610 H     1979  HOH1979     0.0000
   8043 O          32.9400   20.9330   66.0280 O.3   1980  HOH1980     0.0000
   8044 H1         32.8150   20.1880   65.3710 H     1980  HOH1980     0.0000
   8045 H2         32.4290   21.7400   65.7310 H     1980  HOH1980     0.0000
   8046 O          15.7790   31.6660    6.2150 O.3   1981  HOH1981     0.0000
   8047 H1         15.2580   32.2380    5.5790 H     1981  HOH1981     0.0000
   8048 H2         16.3500   32.2390    6.8000 H     1981  HOH1981     0.0000
   8049 O          30.7070    8.4280   22.8370 O.3   1982  HOH1982     0.0000
   8050 H1         31.4720    9.0590   22.9720 H     1982  HOH1982     0.0000
   8051 H2         30.5320    8.3070   21.8610 H     1982  HOH1982     0.0000
   8052 O          16.4100   11.6450   68.9850 O.3   1983  HOH1983     0.0000
   8053 H1         16.0740   12.5840   69.0710 H     1983  HOH1983     0.0000
   8054 H2         16.0180   11.2150   68.1720 H     1983  HOH1983     0.0000
   8055 O          10.5180   22.3670   10.5570 O.3   1984  HOH1984     0.0000
   8056 H1         10.9630   22.4340    9.6630 H     1984  HOH1984     0.0000
   8057 H2         10.2030   21.4310   10.7120 H     1984  HOH1984     0.0000
   8058 O          10.1830   14.4730   55.5810 O.3   1985  HOH1985     0.0000
   8059 H1          9.4910   15.1520   55.8300 H     1985  HOH1985     0.0000
   8060 H2          9.8400   13.8880   54.8470 H     1985  HOH1985     0.0000
   8061 O           8.7750   10.3270   12.4250 O.3   1986  HOH1986     0.0000
   8062 H1          9.0430   11.1560   12.9180 H     1986  HOH1986     0.0000
   8063 H2          8.2750   10.5700   11.5940 H     1986  HOH1986     0.0000
   8064 O           6.6540   15.6630   66.3400 O.3   1987  HOH1987     0.0000
   8065 H1          6.8520   15.1730   67.1900 H     1987  HOH1987     0.0000
   8066 H2          6.9040   16.6260   66.4350 H     1987  HOH1987     0.0000
   8067 O          17.9100    8.0870   10.7810 O.3   1988  HOH1988     0.0000
   8068 H1         18.8950    8.1570   10.6190 H     1988  HOH1988     0.0000
   8069 H2         17.5470    8.9730   11.0670 H     1988  HOH1988     0.0000
   8070 O          22.4790   24.6530   73.5250 O.3   1989  HOH1989     0.0000
   8071 H1         21.9450   25.4910   73.6520 H     1989  HOH1989     0.0000
   8072 H2         23.3620   24.7370   73.9860 H     1989  HOH1989     0.0000
   8073 O          25.5700   24.5200   20.5500 O.3   1990  HOH1990     0.0000
   8074 H1         25.5810   25.4300   20.1330 H     1990  HOH1990     0.0000
   8075 H2         25.9410   24.5640   21.4770 H     1990  HOH1990     0.0000
   8076 O          32.8090   15.8070   55.3030 O.3   1991  HOH1991     0.0000
   8077 H1         32.3550   16.3000   54.5590 H     1991  HOH1991     0.0000
   8078 H2         32.3520   16.0020   56.1700 H     1991  HOH1991     0.0000
   8079 CL         21.2300    7.8770   68.1870 Cl    1992  CL1992      0.0000
   8080 CL         12.9280   17.8790   63.9290 Cl    1993  CL1993      0.0000
   8081 CL         18.0010    7.5270   20.0600 Cl    1994  CL1994      0.0000
   8082 CL         16.2470   26.1210    5.9690 Cl    1995  CL1995      0.0000
   8083 CL         27.2400    3.7950   71.8710 Cl    1996  CL1996      0.0000
   8084 NA         20.5740   28.1560    9.0700 Na    1997  NA1997      0.0000
   8085 NA         31.6320   21.9600   15.3010 Na    1998  NA1998      0.0000
   8086 NA         29.6230   15.5310   20.0090 Na    1999  NA1999      0.0000
   8087 NA         11.0750   23.1760   66.4000 Na    2000  NA2000      0.0000
   8088 NA          7.7720   19.1950   70.7740 Na    2001  NA2001      0.0000
   8089 H          33.4320   10.8180   28.1793 H       1  UNL1        0.0000
   8090 H          33.3128   14.7221   28.0286 H       1  UNL1        0.0000
   8091 H           0.5743    9.8317   45.7338 H       1  UNL1        0.0000
   8092 H           0.5743   20.9117   45.7338 H       1  UNL1        0.0000
   8093 H           0.5743   31.9917   45.7338 H       1  UNL1        0.0000
   8094 H          33.2009    6.2715   27.6008 H       1  UNL1        0.0000
   8095 H          33.2009   17.3515   27.6008 H       1  UNL1        0.0000
   8096 H          33.4320   21.8980   28.1793 H       1  UNL1        0.0000
   8097 H          33.3128   25.8021   28.0286 H       1  UNL1        0.0000
   8098 H          33.3128    3.6421   28.0286 H       1  UNL1        0.0000
   8099 H          33.2009   28.4315   27.6008 H       1  UNL1        0.0000
   8100 H          33.1597   32.0748   27.4673 H       1  UNL1        0.0000
   8101 H          22.5600    7.8770   68.1870 H       2  UNL2        0.0000
   8102 H          14.2580   17.8790   63.9290 H       3  HOH3        0.0000
   8103 H          19.3310    7.5270   20.0600 H       4  HOH4        0.0000
   8104 H          17.5770   26.1210    5.9690 H       5  HOH5        0.0000
   8105 H          28.5700    3.7950   71.8710 H       6  HOH6        0.0000
@<TRIPOS>BOND
     1  5000  4998    1
     2  4720  4719    1
     3  2871  2873    1
     4  2871  2872    1
     5  3013  3012    1
     6  6749  6747    1
     7  3268  3267    1
     8  2447  2445    1
     9  6963  6964    1
    10  6963  6965    1
    11  2575  2574    1
    12  6234  6235    1
    13  6234  6236    1
    14  7918  7917    1
    15  7852  7851    1
    16  7350  7351    1
    17  7350  7352    1
    18  4513  4512    1
    19  7013  7011    1
    20  3086  3084    1
    21  6249  6250    1
    22  6249  6251    1
    23  3709  3708    1
    24  2887  2886    1
    25  6083  6081    1
    26  4206  4207    1
    27  4206  4208    1
    28  7996  7995    1
    29  5923  5922    1
    30  6037  6036    1
    31  5143  5142    1
    32  5419  5418    1
    33  5375  5373    1
    34  6178  6177    1
    35  4693  4692    1
    36  6419  6417    1
    37  6872  6870    1
    38  2836  2835    1
    39  4177  4176    1
    40  7759  7758    1
    41  4064  4062    1
    42  4301  4299    1
    43  2194  2193    1
    44  6553  6552    1
    45  5963  5961    1
    46  5707  5706    1
    47  2634  2635    1
    48  2634  2636    1
    49  4276  4275    1
    50  7696  7695    1
    51  2576  2574    1
    52  7782  7784    1
    53  7782  7783    1
    54  5671  5670    1
    55  6418  6417    1
    56  4512  4514    1
    57  2747  2745    1
    58  5025  5027    1
    59  5025  5026    1
    60  2446  2445    1
    61  4692  4694    1
    62  4863  4864    1
    63  4863  4865    1
    64  7688  7686    1
    65  2835  2837    1
    66  3368  3366    1
    67  3678  3679    1
    68  3678  3680    1
    69  3708  3710    1
    70  6967  6966    1
    71  7917  7919    1
    72  6038  6036    1
    73  7959  7961    1
    74  7959  7960    1
    75  6177  6179    1
    76  4300  4299    1
    77  4176  4178    1
    78  7686  7687    1
    79  2693  2691    1
    80  4579  4578    1
    81  5420  5418    1
    82  7851  7853    1
    83  4580  4578    1
    84  4355  4353    1
    85  2276  2274    1
    86  5670  5672    1
    87  7834  7833    1
    88  4353  4354    1
    89  5961  5962    1
    90  3267  3269    1
    91  4672  4671    1
    92  4719  4721    1
    93  6871  6870    1
    94  7083  7084    1
    95  7083  7085    1
    96  7456  7455    1
    97  4745  4743    1
    98  6552  6554    1
    99  4066  4065    1
   100  4275  4277    1
   101  6968  6966    1
   102  5668  5667    1
   103  4065  4067    1
   104  3366  3367    1
   105  4834  4833    1
   106  4042  4041    1
   107  2886  2888    1
   108  4833  4835    1
   109  5142  5144    1
   110  2679  2680    1
   111  2679  2681    1
   112  7758  7760    1
   113  3012  3014    1
   114  5373  5374    1
   115  3392  3390    1
   116  2193  2195    1
   117  7145  7143    1
   118  5922  5924    1
   119  5619  5620    1
   120  5619  5621    1
   121  7695  7697    1
   122  5667  5669    1
   123  2953  2952    1
   124  4999  4998    1
   125  3469  3468    1
   126  7455  7457    1
   127  4041  4043    1
   128  5146  5145    1
   129  2691  2692    1
   130  6247  6246    1
   131  3929  3927    1
   132  2745  2746    1
   133  3084  3085    1
   134  7995  7997    1
   135  2652  2653    1
   136  2652  2654    1
   137  2710  2709    1
   138  3613  3612    1
   139  4929  4930    1
   140  4929  4931    1
   141  4256  4254    1
   142  2595  2597    1
   143  2595  2596    1
   144  7652  7650    1
   145  6040  6039    1
   146  5995  5994    1
   147  6081  6082    1
   148  7427  7425    1
   149  3767  3765    1
   150  4062  4063    1
   151  3431  3429    1
   152  6662  6660    1
   153  7011  7012    1
   154  6747  6748    1
   155  5706  5708    1
   156  7143  7144    1
   157  5777  5775    1
   158  7833  7835    1
   159  4743  4744    1
   160  6041  6039    1
   161  5145  5147    1
   162  6310  6309    1
   163  2274  2275    1
   164  7106  7104    1
   165  3650  3648    1
   166  4671  4673    1
   167  2709  2711    1
   168  5153  5151    1
   169  7426  7425    1
   170  5994  5996    1
   171  7483  7482    1
   172  5696  5694    1
   173  3390  3391    1
   174  6184  6183    1
   175  3614  3612    1
   176  3468  3470    1
   177  6286  6285    1
   178  4346  4344    1
   179  6140  6138    1
   180  6105  6106    1
   181  6105  6107    1
   182  2952  2954    1
   183  7651  7650    1
   184  2725  2724    1
   185  3927  3928    1
   186  4254  4255    1
   187  6801  6803    1
   188  6801  6802    1
   189  6246  6248    1
   190  3429  3430    1
   191  5857  5856    1
   192  4542  4544    1
   193  4542  4543    1
   194  7435  7434    1
   195  4736  4734    1
   196  6309  6311    1
   197  6183  6185    1
   198  5792  5790    1
   199  4734  4735    1
   200  2583  2585    1
   201  2583  2584    1
   202  6660  6661    1
   203  7678  7677    1
   204  2278  2277    1
   205  6172  6171    1
   206  5798  5796    1
   207  5219  5217    1
   208  3765  3766    1
   209  7482  7484    1
   210  4576  4575    1
   211  6233  6231    1
   212  6341  6339    1
   213  6592  6591    1
   214  6231  6232    1
   215  7104  7105    1
   216  5695  5694    1
   217  5790  5791    1
   218  3041  3039    1
   219  6591  6593    1
   220  5775  5776    1
   221  6117  6118    1
   222  6117  6119    1
   223  6285  6287    1
   224  2277  2279    1
   225  2122  2121    1
   226  6171  6173    1
   227  6138  6139    1
   228  6340  6339    1
   229  3648  3649    1
   230  4797  4799    1
   231  4797  4798    1
   232  7677  7679    1
   233  3353  3351    1
   234  4620  4621    1
   235  4620  4622    1
   236  3610  3609    1
   237  7293  7294    1
   238  7293  7295    1
   239  2582  2580    1
   240  6160  6159    1
   241  5438  5436    1
   242  5151  5152    1
   243  2302  2301    1
   244  2495  2493    1
   245  2494  2493    1
   246  2318  2316    1
   247  7785  7786    1
   248  7785  7787    1
   249  2989  2988    1
   250  7321  7320    1
   251  5252  5250    1
   252  4028  4026    1
   253  2724  2726    1
   254  6674  6672    1
   255  7814  7812    1
   256  5250  5251    1
   257  2121  2123    1
   258  6191  6189    1
   259  2316  2317    1
   260  5261  5259    1
   261  7565  7563    1
   262  2427  2428    1
   263  2427  2429    1
   264  3040  3039    1
   265  4344  4345    1
   266  2372  2370    1
   267  7563  7564    1
   268  6608  6606    1
   269  7474  7473    1
   270  5796  5797    1
   271  7434  7436    1
   272  5217  5218    1
   273  6603  6604    1
   274  6603  6605    1
   275  4486  4485    1
   276  2301  2303    1
   277  3188  3186    1
   278  2217  2219    1
   279  2217  2218    1
   280  7993  7992    1
   281  2222  2220    1
   282  7534  7533    1
   283  2824  2823    1
   284  5856  5858    1
   285  7320  7322    1
   286  4423  4422    1
   287  3341  3339    1
   288  7525  7524    1
   289  6568  6567    1
   290  5755  5754    1
   291  6190  6189    1
   292  7533  7535    1
   293  5362  5361    1
   294  2988  2990    1
   295  6159  6161    1
   296  5987  5985    1
   297  3351  3352    1
   298  2950  2949    1
   299  3038  3036    1
   300  5300  5298    1
   301  2823  2825    1
   302  4026  4027    1
   303  4575  4577    1
   304  3609  3611    1
   305  6181  6180    1
   306  2371  2370    1
   307  7496  7494    1
   308  7812  7813    1
   309  7473  7475    1
   310  6451  6450    1
   311  5436  5437    1
   312  2221  2220    1
   313  5298  5299    1
   314  6391  6390    1
   315  4815  4817    1
   316  4815  4816    1
   317  2785  2784    1
   318  7524  7526    1
   319  5754  5756    1
   320  2580  2581    1
   321  6924  6925    1
   322  6924  6926    1
   323  3584  3582    1
   324  6721  6720    1
   325  5297  5295    1
   326  6672  6673    1
   327  4240  4239    1
   328  4407  4409    1
   329  4407  4408    1
   330  6392  6390    1
   331  5647  5646    1
   332  2667  2668    1
   333  2667  2669    1
   334  7494  7495    1
   335  6606  6607    1
   336  5553  5554    1
   337  5553  5555    1
   338  3173  3171    1
   339  4485  4487    1
   340  2117  2115    1
   341  6960  6962    1
   342  6960  6961    1
   343  6720  6722    1
   344  6589  6588    1
   345  4480  4479    1
   346  6320  6318    1
   347  6567  6569    1
   348  2949  2951    1
   349  2561  2559    1
   350  5259  5260    1
   351  7042  7041    1
   352  4422  4424    1
   353  2443  2442    1
   354  6450  6452    1
   355  7972  7971    1
   356  4994  4992    1
   357  6180  6182    1
   358  6520  6519    1
   359  3172  3171    1
   360  5361  5363    1
   361  6336  6338    1
   362  6336  6337    1
   363  7994  7992    1
   364  7041  7043    1
   365  3186  3187    1
   366  5470  5469    1
   367  3339  3340    1
   368  2755  2754    1
   369  5734  5733    1
   370  5733  5735    1
   371  5086  5085    1
   372  5608  5607    1
   373  2590  2589    1
   374  5609  5607    1
   375  5646  5648    1
   376  6585  6586    1
   377  6585  6587    1
   378  4479  4481    1
   379  5985  5986    1
   380  4955  4953    1
   381  7491  7493    1
   382  7491  7492    1
   383  3747  3749    1
   384  3747  3748    1
   385  3036  3037    1
   386  6714  6715    1
   387  6714  6716    1
   388  2115  2116    1
   389  6792  6794    1
   390  6792  6793    1
   391  3334  3333    1
   392  6316  6315    1
   393  7971  7973    1
   394  6519  6521    1
   395  6588  6590    1
   396  5035  5034    1
   397  2578  2577    1
   398  2819  2817    1
   399  4239  4241    1
   400  3191  3189    1
   401  2560  2559    1
   402  5295  5296    1
   403  4163  4161    1
   404  5469  5471    1
   405  2784  2786    1
   406  4895  4893    1
   407  3203  3201    1
   408  6306  6308    1
   409  6306  6307    1
   410  2182  2181    1
   411  5833  5832    1
   412  3907  3906    1
   413  3405  3406    1
   414  3405  3407    1
   415  2444  2442    1
   416  7267  7266    1
   417  2754  2756    1
   418  3582  3583    1
   419  2865  2866    1
   420  2865  2867    1
   421  8042  8040    1
   422  5529  5531    1
   423  5529  5530    1
   424  3760  3759    1
   425  4375  4374    1
   426  2589  2591    1
   427  5702  5700    1
   428  2181  2183    1
   429  4009  4008    1
   430  3759  3761    1
   431  3532  3531    1
   432  7177  7176    1
   433  6318  6319    1
   434  6575  6573    1
   435  7266  7268    1
   436  6315  6317    1
   437  4992  4993    1
   438  5085  5087    1
   439  6863  6861    1
   440  4342  4341    1
   441  6509  6507    1
   442  5036  5034    1
   443  7178  7176    1
   444  3374  3372    1
   445  7116  7117    1
   446  7116  7118    1
   447  4646  4644    1
   448  5727  5729    1
   449  5727  5728    1
   450  7318  7317    1
   451  4953  4954    1
   452  2779  2778    1
   453  3908  3906    1
   454  3838  3837    1
   455  4341  4343    1
   456  6831  6832    1
   457  6831  6833    1
   458  3125  3123    1
   459  3472  3471    1
   460  3137  3135    1
   461  3333  3335    1
   462  4008  4010    1
   463  8047  8046    1
   464  6129  6131    1
   465  6129  6130    1
   466  2128  2127    1
   467  2263  2262    1
   468  3464  3462    1
   469  3189  3190    1
   470  4827  4828    1
   471  4827  4829    1
   472  5411  5409    1
   473  5747  5745    1
   474  4893  4894    1
   475  8040  8041    1
   476  4253  4251    1
   477  3534  3535    1
   478  3534  3536    1
   479  4161  4162    1
   480  4420  4419    1
   481  3322  3321    1
   482  5832  5834    1
   483  2577  2579    1
   484  7025  7023    1
   485  6862  6861    1
   486  2817  2818    1
   487  2262  2264    1
   488  4822  4821    1
   489  5687  5685    1
   490  5752  5751    1
   491  2129  2127    1
   492  6507  6508    1
   493  6573  6574    1
   494  5474  5472    1
   495  3201  3202    1
   496  3344  3342    1
   497  6890  6888    1
   498  4644  4645    1
   499  3123  3124    1
   500  6537  6538    1
   501  6537  6539    1
   502  2267  2265    1
   503  7007  7005    1
   504  6364  6363    1
   505  2778  2780    1
   506  2994  2996    1
   507  2994  2995    1
   508  7589  7587    1
   509  3277  3276    1
   510  7668  7670    1
   511  7668  7669    1
   512  3372  3373    1
   513  3533  3531    1
   514  6542  6540    1
   515  3837  3839    1
   516  5751  5753    1
   517  4419  4421    1
   518  4374  4376    1
   519  5700  5701    1
   520  3321  3323    1
   521  6728  6726    1
   522  6363  6365    1
   523  7556  7554    1
   524  8046  8048    1
   525  5485  5484    1
   526  7317  7319    1
   527  2292  2294    1
   528  2292  2293    1
   529  4251  4252    1
   530  6241  6240    1
   531  4238  4236    1
   532  3473  3471    1
   533  6240  6242    1
   534  3754  3753    1
   535  5292  5293    1
   536  5292  5294    1
   537  7855  7854    1
   538  2187  2188    1
   539  2187  2189    1
   540  5745  5746    1
   541  3113  3111    1
   542  2740  2739    1
   543  6541  6540    1
   544  3135  3136    1
   545  6888  6889    1
   546  4397  4395    1
   547  4861  4860    1
   548  2434  2433    1
   549  3276  3278    1
   550  5410  5409    1
   551  4862  4860    1
   552  3961  3960    1
   553  2739  2741    1
   554  3753  3755    1
   555  7067  7065    1
   556  3462  3463    1
   557  3146  3144    1
   558  5853  5855    1
   559  5853  5854    1
   560  7023  7024    1
   561  2773  2772    1
   562  7342  7341    1
   563  7555  7554    1
   564  4154  4152    1
   565  4395  4396    1
   566  7587  7588    1
   567  4821  4823    1
   568  2265  2266    1
   569  7793  7791    1
   570  5316  5318    1
   571  5316  5317    1
   572  3960  3962    1
   573  7355  7353    1
   574  7791  7792    1
   575  5685  5686    1
   576  4784  4782    1
   577  5472  5473    1
   578  3342  3343    1
   579  4369  4368    1
   580  7006  7005    1
   581  5831  5829    1
   582  6494  6492    1
   583  6726  6727    1
   584  6199  6198    1
   585  4783  4782    1
   586  5484  5486    1
   587  3938  3936    1
   588  7341  7343    1
   589  4886  4884    1
   590  4352  4350    1
   591  4153  4152    1
   592  4885  4884    1
   593  2314  2313    1
   594  3936  3937    1
   595  5714  5712    1
   596  2764  2763    1
   597  2553  2555    1
   598  2553  2554    1
   599  7289  7287    1
   600  6562  6561    1
   601  2433  2435    1
   602  2244  2245    1
   603  2244  2246    1
   604  2197  2196    1
   605  5347  5346    1
   606  4236  4237    1
   607  5450  5448    1
   608  5448  5449    1
   609  4495  4494    1
   610  2772  2774    1
   611  5284  5283    1
   612  6563  6561    1
   613  5830  5829    1
   614  2196  2198    1
   615  7854  7856    1
   616  3145  3144    1
   617  2986  2985    1
   618  6223  6222    1
   619  2765  2763    1
   620  4970  4968    1
   621  2210  2208    1
   622  3111  3112    1
   623  2313  2315    1
   624  8009  8007    1
   625  4911  4912    1
   626  4911  4913    1
   627  5346  5348    1
   628  6745  6744    1
   629  4781  4779    1
   630  2402  2400    1
   631  5957  5955    1
   632  4231  4230    1
   633  6818  6816    1
   634  7130  7128    1
   635  7065  7066    1
   636  2598  2599    1
   637  2598  2600    1
   638  4870  4869    1
   639  2864  2862    1
   640  5665  5664    1
   641  4366  4365    1
   642  4172  4170    1
   643  3506  3504    1
   644  2208  2209    1
   645  8007  8008    1
   646  3230  3228    1
   647  6222  6224    1
   648  2987  2985    1
   649  2337  2339    1
   650  2337  2338    1
   651  7454  7452    1
   652  6198  6200    1
   653  7288  7287    1
   654  4368  4370    1
   655  2807  2805    1
   656  4325  4323    1
   657  6283  6282    1
   658  4814  4812    1
   659  4765  4764    1
   660  4494  4496    1
   661  4350  4351    1
   662  5283  5285    1
   663  7353  7354    1
   664  7019  7017    1
   665  6061  6060    1
   666  7781  7779    1
   667  3229  3228    1
   668  6744  6746    1
   669  3182  3180    1
   670  5664  5666    1
   671  6492  6493    1
   672  6773  6771    1
   673  5170  5169    1
   674  4871  4869    1
   675  4830  4831    1
   676  4830  4832    1
   677  2862  2863    1
   678  4230  4232    1
   679  2870  2868    1
   680  5712  5713    1
   681  4471  4470    1
   682  4079  4077    1
   683  5542  5541    1
   684  4807  4806    1
   685  4808  4806    1
   686  7000  6999    1
   687  3504  3505    1
   688  4573  4572    1
   689  5171  5169    1
   690  7140  7142    1
   691  7140  7141    1
   692  7469  7467    1
   693  7236  7238    1
   694  7236  7237    1
   695  7392  7394    1
   696  7392  7393    1
   697  4367  4365    1
   698  4766  4764    1
   699  3283  3282    1
   700  6282  6284    1
   701  4609  4608    1
   702  6060  6062    1
   703  4610  4608    1
   704  4779  4780    1
   705  7878  7879    1
   706  7878  7880    1
   707  3234  3236    1
   708  3234  3235    1
   709  8024  8022    1
   710  4159  4158    1
   711  4470  4472    1
   712  6386  6384    1
   713  6771  6772    1
   714  3785  3783    1
   715  7369  7368    1
   716  7453  7452    1
   717  5955  5956    1
   718  4269  4270    1
   719  4269  4271    1
   720  4968  4969    1
   721  6066  6067    1
   722  6066  6068    1
   723  5194  5193    1
   724  6086  6084    1
   725  3783  3784    1
   726  6816  6817    1
   727  7600  7599    1
   728  2962  2961    1
   729  2146  2145    1
   730  6999  7001    1
   731  2400  2401    1
   732  7366  7365    1
   733  2548  2547    1
   734  6344  6342    1
   735  6467  6465    1
   736  7128  7129    1
   737  6050  6048    1
   738  2868  2869    1
   739  4475  4473    1
   740  6342  6343    1
   741  7018  7017    1
   742  7931  7929    1
   743  4170  4171    1
   744  5231  5229    1
   745  7601  7599    1
   746  7016  7014    1
   747  7467  7468    1
   748  7900  7899    1
   749  4323  4324    1
   750  6084  6085    1
   751  2805  2806    1
   752  8023  8022    1
   753  3789  3790    1
   754  3789  3791    1
   755  2842  2841    1
   756  4812  4813    1
   757  2841  2843    1
   758  4588  4587    1
   759  7779  7780    1
   760  3380  3378    1
   761  2547  2549    1
   762  7368  7370    1
   763  3282  3284    1
   764  3180  3181    1
   765  2145  2147    1
   766  7546  7545    1
   767  4466  4464    1
   768  4077  4078    1
   769  4958  4956    1
   770  5161  5160    1
   771  4210  4209    1
   772  7068  7070    1
   773  7068  7069    1
   774  7899  7901    1
   775  6289  6288    1
   776  4572  4574    1
   777  5302  5301    1
   778  7198  7197    1
   779  4474  4473    1
   780  7991  7989    1
   781  4982  4980    1
   782  2321  2319    1
   783  4209  4211    1
   784  7545  7547    1
   785  5541  5543    1
   786  2642  2640    1
   787  4587  4589    1
   788  5193  5195    1
   789  2961  2963    1
   790  6446  6444    1
   791  3347  3345    1
   792  5947  5946    1
   793  7847  7845    1
   794  4160  4158    1
   795  3176  3174    1
   796  2119  2118    1
   797  5946  5948    1
   798  6465  6466    1
   799  6710  6708    1
   800  7738  7737    1
   801  2751  2753    1
   802  2751  2752    1
   803  3345  3346    1
   804  7930  7929    1
   805  6048  6049    1
   806  7367  7365    1
   807  4464  4465    1
   808  6384  6385    1
   809  5243  5241    1
   810  6280  6279    1
   811  3174  3175    1
   812  7466  7464    1
   813  7146  7147    1
   814  7146  7148    1
   815  5301  5303    1
   816  6857  6855    1
   817  4724  4722    1
   818  7199  7197    1
   819  2492  2490    1
   820  7737  7739    1
   821  5242  5241    1
   822  5229  5230    1
   823  7325  7323    1
   824  7014  7015    1
   825  4942  4941    1
   826  6116  6114    1
   827  2118  2120    1
   828  7064  7062    1
   829  5160  5162    1
   830  3257  3255    1
   831  4121  4119    1
   832  7845  7846    1
   833  6487  6486    1
   834  6288  6290    1
   835  2821  2820    1
   836  2617  2616    1
   837  4292  4290    1
   838  3378  3379    1
   839  4956  4957    1
   840  8056  8055    1
   841  5140  5139    1
   842  7561  7560    1
   843  2320  2319    1
   844  4927  4926    1
   845  6486  6488    1
   846  7751  7749    1
   847  7464  7465    1
   848  6485  6483    1
   849  5911  5910    1
   850  2640  2641    1
   851  6484  6483    1
   852  2344  2343    1
   853  7187  7185    1
   854  2820  2822    1
   855  3255  3256    1
   856  7989  7990    1
   857  7614  7615    1
   858  7614  7616    1
   859  3243  3244    1
   860  3243  3245    1
   861  2616  2618    1
   862  6279  6281    1
   863  2490  2491    1
   864  3916  3915    1
   865  4980  4981    1
   866  4630  4629    1
   867  6444  6445    1
   868  5139  5141    1
   869  7062  7063    1
   870  4667  4665    1
   871  4120  4119    1
   872  6126  6128    1
   873  6126  6127    1
   874  6708  6709    1
   875  3130  3129    1
   876  7451  7449    1
   877  3935  3933    1
   878  5184  5186    1
   879  5184  5185    1
   880  4025  4023    1
   881  5910  5912    1
   882  6532  6531    1
   883  6114  6115    1
   884  7220  7218    1
   885  5564  5562    1
   886  7562  7560    1
   887  4710  4711    1
   888  4710  4712    1
   889  2343  2345    1
   890  7449  7450    1
   891  4722  4723    1
   892  4013  4011    1
   893  3915  3917    1
   894  5018  5016    1
   895  3676  3675    1
   896  4941  4943    1
   897  2933  2931    1
   898  7189  7188    1
   899  6855  6856    1
   900  7235  7233    1
   901  3218  3216    1
   902  7323  7324    1
   903  4926  4928    1
   904  5269  5268    1
   905  3996  3997    1
   906  3996  3998    1
   907  4629  4631    1
   908  5562  5563    1
   909  2968  2967    1
   910  4691  4689    1
   911  3525  3526    1
   912  3525  3527    1
   913  6531  6533    1
   914  3064  3063    1
   915  7185  7186    1
   916  3968  3966    1
   917  6002  6000    1
   918  2558  2556    1
   919  3934  3933    1
   920  7762  7761    1
   921  2484  2485    1
   922  2484  2486    1
   923  4290  4291    1
   924  7936  7935    1
   925  3502  3501    1
   926  7914  7916    1
   927  7914  7915    1
   928  3967  3966    1
   929  3501  3503    1
   930  5421  5423    1
   931  5421  5422    1
   932  6001  6000    1
   933  4198  4197    1
   934  2967  2969    1
   935  3595  3594    1
   936  4222  4221    1
   937  8055  8057    1
   938  4011  4012    1
   939  5228  5226    1
   940  3557  3555    1
   941  3063  3065    1
   942  2783  2781    1
   943  5270  5268    1
   944  3670  3669    1
   945  3894  3896    1
   946  3894  3895    1
   947  8068  8067    1
   948  5221  5220    1
   949  3129  3131    1
   950  2767  2766    1
   951  7749  7750    1
   952  5635  5634    1
   953  4023  4024    1
   954  5016  5017    1
   955  5802  5804    1
   956  5802  5803    1
   957  7848  7850    1
   958  7848  7849    1
   959  3238  3237    1
   960  3237  3239    1
   961  3069  3071    1
   962  3069  3070    1
   963  5548  5547    1
   964  6859  6858    1
   965  2768  2766    1
   966  2504  2502    1
   967  5239  5238    1
   968  8067  8069    1
   969  6750  6752    1
   970  6750  6751    1
   971  4223  4221    1
   972  3433  3432    1
   973  5549  5547    1
   974  7761  7763    1
   975  2781  2782    1
   976  3675  3677    1
   977  4939  4938    1
   978  2556  2557    1
   979  5662  5661    1
   980  2227  2226    1
   981  5238  5240    1
   982  7935  7937    1
   983  3432  3434    1
   984  4665  4666    1
   985  3796  3795    1
   986  7188  7190    1
   987  6785  6783    1
   988  5661  5663    1
   989  7218  7219    1
   990  5765  5763    1
   991  2326  2325    1
   992  2502  2503    1
   993  2977  2976    1
   994  6682  6681    1
   995  7987  7986    1
   996  4899  4900    1
   997  4899  4901    1
   998  2931  2932    1
   999  4689  4690    1
  1000  3216  3217    1
  1001  6152  6150    1
  1002  7550  7548    1
  1003  7233  7234    1
  1004  4197  4199    1
  1005  2803  2802    1
  1006  6858  6860    1
  1007  6550  6549    1
  1008  5634  5636    1
  1009  7986  7988    1
  1010  5227  5226    1
  1011  3669  3671    1
  1012  4242  4244    1
  1013  4242  4243    1
  1014  3594  3596    1
  1015  3949  3948    1
  1016  5773  5772    1
  1017  2331  2332    1
  1018  2331  2333    1
  1019  5358  5359    1
  1020  5358  5360    1
  1021  6656  6654    1
  1022  2829  2830    1
  1023  2829  2831    1
  1024  5611  5610    1
  1025  6638  6636    1
  1026  5220  5222    1
  1027  6030  6032    1
  1028  6030  6031    1
  1029  6864  6866    1
  1030  6864  6865    1
  1031  5389  5388    1
  1032  6549  6551    1
  1033  2325  2327    1
  1034  3795  3797    1
  1035  7613  7611    1
  1036  2226  2228    1
  1037  3555  3556    1
  1038  4938  4940    1
  1039  8063  8061    1
  1040  6476  6474    1
  1041  5117  5115    1
  1042  3875  3873    1
  1043  4539  4540    1
  1044  4539  4541    1
  1045  3873  3874    1
  1046  2802  2804    1
  1047  7463  7461    1
  1048  6683  6681    1
  1049  7137  7138    1
  1050  7137  7139    1
  1051  7221  7223    1
  1052  7221  7222    1
  1053  3619  3618    1
  1054  5920  5919    1
  1055  5764  5763    1
  1056  6783  6784    1
  1057  4357  4356    1
  1058  5612  5610    1
  1059  8034  8035    1
  1060  8034  8036    1
  1061  5039  5037    1
  1062  6836  6834    1
  1063  3881  3879    1
  1064  3574  3573    1
  1065  7504  7503    1
  1066  6474  6475    1
  1067  7621  7620    1
  1068  5919  5921    1
  1069  5821  5820    1
  1070  2384  2382    1
  1071  2978  2976    1
  1072  4134  4135    1
  1073  4134  4136    1
  1074  6150  6151    1
  1075  7548  7549    1
  1076  3948  3950    1
  1077  5774  5772    1
  1078  3879  3880    1
  1079  2172  2173    1
  1080  2172  2174    1
  1081  4643  4641    1
  1082  3446  3444    1
  1083  5388  5390    1
  1084  3618  3620    1
  1085  3730  3729    1
  1086  6813  6815    1
  1087  6813  6814    1
  1088  6741  6743    1
  1089  6741  6742    1
  1090  5208  5209    1
  1091  5208  5210    1
  1092  6655  6654    1
  1093  6775  6774    1
  1094  5822  5820    1
  1095  5174  5172    1
  1096  3731  3729    1
  1097  3511  3510    1
  1098  4872  4873    1
  1099  4872  4874    1
  1100  3224  3222    1
  1101  6323  6321    1
  1102  7715  7713    1
  1103  7461  7462    1
  1104  5392  5391    1
  1105  6358  6357    1
  1106  7702  7701    1
  1107  5391  5393    1
  1108  8061  8062    1
  1109  6636  6637    1
  1110  5815  5814    1
  1111  7622  7620    1
  1112  4298  4296    1
  1113  4642  4641    1
  1114  7611  7612    1
  1115  6652  6651    1
  1116  3631  3630    1
  1117  7703  7701    1
  1118  5115  5116    1
  1119  3630  3632    1
  1120  5037  5038    1
  1121  5527  5526    1
  1122  8012  8010    1
  1123  7714  7713    1
  1124  5326  5325    1
  1125  7503  7505    1
  1126  3742  3741    1
  1127  4358  4356    1
  1128  3510  3512    1
  1129  5172  5173    1
  1130  2909  2907    1
  1131  4127  4125    1
  1132  7816  7815    1
  1133  7970  7968    1
  1134  3445  3444    1
  1135  5570  5568    1
  1136  7968  7969    1
  1137  4379  4377    1
  1138  6774  6776    1
  1139  6834  6835    1
  1140  2156  2154    1
  1141  6349  6348    1
  1142  3573  3575    1
  1143  7706  7704    1
  1144  2413  2412    1
  1145  6653  6651    1
  1146  5135  5133    1
  1147  2215  2214    1
  1148  7476  7478    1
  1149  7476  7477    1
  1150  2399  2397    1
  1151  4145  4143    1
  1152  6357  6359    1
  1153  2335  2334    1
  1154  2382  2383    1
  1155  5528  5526    1
  1156  6664  6663    1
  1157  7638  7640    1
  1158  7638  7639    1
  1159  7704  7705    1
  1160  4246  4245    1
  1161  4245  4247    1
  1162  2334  2336    1
  1163  2412  2414    1
  1164  7985  7983    1
  1165  4143  4144    1
  1166  5339  5337    1
  1167  6348  6350    1
  1168  2214  2216    1
  1169  4604  4602    1
  1170  3554  3552    1
  1171  3549  3550    1
  1172  3549  3551    1
  1173  2473  2472    1
  1174  3222  3223    1
  1175  3850  3849    1
  1176  4921  4920    1
  1177  5510  5508    1
  1178  2801  2799    1
  1179  8010  8011    1
  1180  7983  7984    1
  1181  7817  7815    1
  1182  3756  3757    1
  1183  3756  3758    1
  1184  7789  7788    1
  1185  6321  6322    1
  1186  4125  4126    1
  1187  3764  3762    1
  1188  4877  4875    1
  1189  3089  3087    1
  1190  6230  6228    1
  1191  5327  5325    1
  1192  4181  4179    1
  1193  6852  6853    1
  1194  6852  6854    1
  1195  5816  5814    1
  1196  3397  3396    1
  1197  4377  4378    1
  1198  6266  6264    1
  1199  5868  5870    1
  1200  5868  5869    1
  1201  7258  7257    1
  1202  5568  5569    1
  1203  4296  4297    1
  1204  7259  7257    1
  1205  2800  2799    1
  1206  7579  7578    1
  1207  3262  3261    1
  1208  2240  2238    1
  1209  7798  7797    1
  1210  3691  3690    1
  1211  5307  5309    1
  1212  5307  5308    1
  1213  3849  3851    1
  1214  7124  7122    1
  1215  7797  7799    1
  1216  2472  2474    1
  1217  6497  6495    1
  1218  7037  7035    1
  1219  3763  3762    1
  1220  4754  4752    1
  1221  3951  3953    1
  1222  3951  3952    1
  1223  3741  3743    1
  1224  5133  5134    1
  1225  2238  2239    1
  1226  3552  3553    1
  1227  7578  7580    1
  1228  7819  7818    1
  1229  6842  6840    1
  1230  2907  2908    1
  1231  4179  4180    1
  1232  2903  2901    1
  1233  3700  3699    1
  1234  3699  3701    1
  1235  7010  7008    1
  1236  6944  6942    1
  1237  3241  3240    1
  1238  2571  2573    1
  1239  2571  2572    1
  1240  5332  5331    1
  1241  7211  7209    1
  1242  7790  7788    1
  1243  7127  7125    1
  1244  2154  2155    1
  1245  2397  2398    1
  1246  6665  6663    1
  1247  2615  2613    1
  1248  2919  2921    1
  1249  2919  2920    1
  1250  5896  5895    1
  1251  5651  5649    1
  1252  7624  7623    1
  1253  7126  7125    1
  1254  2851  2850    1
  1255  3971  3969    1
  1256  4920  4922    1
  1257  5337  5338    1
  1258  7942  7941    1
  1259  7502  7500    1
  1260  4669  4668    1
  1261  2923  2922    1
  1262  7122  7123    1
  1263  6840  6841    1
  1264  3355  3354    1
  1265  3261  3263    1
  1266  5200  5199    1
  1267  4875  4876    1
  1268  7818  7820    1
  1269  7500  7501    1
  1270  6596  6594    1
  1271  3240  3242    1
  1272  4522  4521    1
  1273  4602  4603    1
  1274  3396  3398    1
  1275  5508  5509    1
  1276  3080  3078    1
  1277  3811  3810    1
  1278  4189  4188    1
  1279  6496  6495    1
  1280  5744  5742    1
  1281  6228  6229    1
  1282  3025  3024    1
  1283  2708  2706    1
  1284  5895  5897    1
  1285  3087  3088    1
  1286  6406  6405    1
  1287  2948  2946    1
  1288  4668  4670    1
  1289  6264  6265    1
  1290  3078  3079    1
  1291  4394  4392    1
  1292  2901  2902    1
  1293  7941  7943    1
  1294  3265  3264    1
  1295  3152  3150    1
  1296  6595  6594    1
  1297  4373  4371    1
  1298  3163  3162    1
  1299  2852  2850    1
  1300  6942  6943    1
  1301  3690  3692    1
  1302  5660  5658    1
  1303  7774  7773    1
  1304  2237  2235    1
  1305  7894  7893    1
  1306  2965  2964    1
  1307  7035  7036    1
  1308  7210  7209    1
  1309  6346  6345    1
  1310  5617  5616    1
  1311  2922  2924    1
  1312  3264  3266    1
  1313  4752  4753    1
  1314  5650  5649    1
  1315  4188  4190    1
  1316  6347  6345    1
  1317  3885  3886    1
  1318  3885  3887    1
  1319  3354  3356    1
  1320  2946  2947    1
  1321  5331  5333    1
  1322  7008  7009    1
  1323  2290  2289    1
  1324  7384  7383    1
  1325  5279  5277    1
  1326  2991  2992    1
  1327  2991  2993    1
  1328  3059  3057    1
  1329  4499  4497    1
  1330  6869  6867    1
  1331  5199  5201    1
  1332  4392  4393    1
  1333  2613  2614    1
  1334  3232  3231    1
  1335  2906  2904    1
  1336  3888  3890    1
  1337  3888  3889    1
  1338  7372  7371    1
  1339  7623  7625    1
  1340  7407  7408    1
  1341  7407  7409    1
  1342  3057  3058    1
  1343  3286  3285    1
  1344  6405  6407    1
  1345  2904  2905    1
  1346  3969  3970    1
  1347  7773  7775    1
  1348  5566  5565    1
  1349  3162  3164    1
  1350  5175  5176    1
  1351  5175  5177    1
  1352  6867  6868    1
  1353  7642  7641    1
  1354  2964  2966    1
  1355  2706  2707    1
  1356  5742  5743    1
  1357  6412  6411    1
  1358  3591  3593    1
  1359  3591  3592    1
  1360  4110  4112    1
  1361  4110  4111    1
  1362  3024  3026    1
  1363  6204  6205    1
  1364  6204  6206    1
  1365  5567  5565    1
  1366  2450  2448    1
  1367  3106  3105    1
  1368  3437  3435    1
  1369  6413  6411    1
  1370  5616  5618    1
  1371  3810  3812    1
  1372  3300  3302    1
  1373  3300  3301    1
  1374  4521  4523    1
  1375  4405  4404    1
  1376  2661  2662    1
  1377  2661  2663    1
  1378  4202  4200    1
  1379  3150  3151    1
  1380  2236  2235    1
  1381  7641  7643    1
  1382  4497  4498    1
  1383  5120  5118    1
  1384  7628  7626    1
  1385  7626  7627    1
  1386  4315  4314    1
  1387  7337  7335    1
  1388  4371  4372    1
  1389  6259  6258    1
  1390  6260  6258    1
  1391  7383  7385    1
  1392  5658  5659    1
  1393  3231  3233    1
  1394  7893  7895    1
  1395  7313  7311    1
  1396  6991  6990    1
  1397  2449  2448    1
  1398  6212  6210    1
  1399  4404  4406    1
  1400  4091  4089    1
  1401  5033  5031    1
  1402  3035  3033    1
  1403  2291  2289    1
  1404  3299  3297    1
  1405  3100  3099    1
  1406  6008  6006    1
  1407  7335  7336    1
  1408  5277  5278    1
  1409  6693  6695    1
  1410  6693  6694    1
  1411  7373  7371    1
  1412  7595  7593    1
  1413  5306  5304    1
  1414  6455  6453    1
  1415  3285  3287    1
  1416  6887  6885    1
  1417  2520  2521    1
  1418  2520  2522    1
  1419  5573  5571    1
  1420  3099  3101    1
  1421  4985  4983    1
  1422  3336  3338    1
  1423  3336  3337    1
  1424  2760  2762    1
  1425  2760  2761    1
  1426  4314  4316    1
  1427  5888  5886    1
  1428  7810  7809    1
  1429  2666  2664    1
  1430  7097  7095    1
  1431  6990  6992    1
  1432  7946  7944    1
  1433  5460  5461    1
  1434  5460  5462    1
  1435  4093  4092    1
  1436  7312  7311    1
  1437  3105  3107    1
  1438  2639  2637    1
  1439  5717  5715    1
  1440  7801  7800    1
  1441  3034  3033    1
  1442  4200  4201    1
  1443  2366  2364    1
  1444  6007  6006    1
  1445  5304  5305    1
  1446  2517  2518    1
  1447  2517  2519    1
  1448  3435  3436    1
  1449  7273  7272    1
  1450  7274  7272    1
  1451  7800  7802    1
  1452  3275  3273    1
  1453  6885  6886    1
  1454  2612  2610    1
  1455  3281  3279    1
  1456  3547  3546    1
  1457  5600  5598    1
  1458  4006  4005    1
  1459  5118  5119    1
  1460  3077  3075    1
  1461  7158  7159    1
  1462  7158  7160    1
  1463  2362  2361    1
  1464  3274  3273    1
  1465  6210  6211    1
  1466  5981  5979    1
  1467  4018  4017    1
  1468  5536  5535    1
  1469  3958  3957    1
  1470  6848  6846    1
  1471  6994  6993    1
  1472  2638  2637    1
  1473  2361  2363    1
  1474  3297  3298    1
  1475  3548  3546    1
  1476  6989  6987    1
  1477  5032  5031    1
  1478  3647  3645    1
  1479  7275  7276    1
  1480  7275  7277    1
  1481  7804  7803    1
  1482  8015  8013    1
  1483  3509  3507    1
  1484  7528  7527    1
  1485  4709  4707    1
  1486  7120  7119    1
  1487  7594  7593    1
  1488  3279  3280    1
  1489  2665  2664    1
  1490  5715  5716    1
  1491  7543  7542    1
  1492  3986  3984    1
  1493  7542  7544    1
  1494  4089  4090    1
  1495  2364  2365    1
  1496  7809  7811    1
  1497  5516  5514    1
  1498  3919  3918    1
  1499  6453  6454    1
  1500  3076  3075    1
  1501  5571  5572    1
  1502  4092  4094    1
  1503  7944  7945    1
  1504  4983  4984    1
  1505  3098  3096    1
  1506  6766  6765    1
  1507  2296  2295    1
  1508  7400  7398    1
  1509  4726  4725    1
  1510  6187  6186    1
  1511  5806  5805    1
  1512  4501  4500    1
  1513  3918  3920    1
  1514  5535  5537    1
  1515  4500  4502    1
  1516  5514  5515    1
  1517  5089  5088    1
  1518  7213  7212    1
  1519  7571  7569    1
  1520  7095  7096    1
  1521  3097  3096    1
  1522  4017  4019    1
  1523  3984  3985    1
  1524  5886  5887    1
  1525  7527  7529    1
  1526  2295  2297    1
  1527  3499  3498    1
  1528  4707  4708    1
  1529  8013  8014    1
  1530  6819  6821    1
  1531  6819  6820    1
  1532  2611  2610    1
  1533  5805  5807    1
  1534  3794  3792    1
  1535  3957  3959    1
  1536  6993  6995    1
  1537  6463  6462    1
  1538  6458  6456    1
  1539  4005  4007    1
  1540  7121  7119    1
  1541  5771  5769    1
  1542  5598  5599    1
  1543  7803  7805    1
  1544  4681  4680    1
  1545  4168  4167    1
  1546  6765  6767    1
  1547  4527  4529    1
  1548  4527  4528    1
  1549  6846  6847    1
  1550  6464  6462    1
  1551  6610  6609    1
  1552  5289  5291    1
  1553  5289  5290    1
  1554  4725  4727    1
  1555  4309  4308    1
  1556  3604  3603    1
  1557  6987  6988    1
  1558  5768  5766    1
  1559  6456  6457    1
  1560  4633  4632    1
  1561  3508  3507    1
  1562  5766  5767    1
  1563  5845  5844    1
  1564  2918  2916    1
  1565  5979  5980    1
  1566  3498  3500    1
  1567  3645  3646    1
  1568  6381  6382    1
  1569  6381  6383    1
  1570  2475  2477    1
  1571  2475  2476    1
  1572  6003  6005    1
  1573  6003  6004    1
  1574  7304  7302    1
  1575  7302  7303    1
  1576  5597  5595    1
  1577  2632  2631    1
  1578  2489  2487    1
  1579  6186  6188    1
  1580  3416  3414    1
  1581  7092  7094    1
  1582  7092  7093    1
  1583  5451  5453    1
  1584  5451  5452    1
  1585  3787  3786    1
  1586  5088  5090    1
  1587  7681  7680    1
  1588  6044  6042    1
  1589  3605  3603    1
  1590  4697  4695    1
  1591  7897  7896    1
  1592  7570  7569    1
  1593  7877  7875    1
  1594  2470  2469    1
  1595  4682  4680    1
  1596  6923  6921    1
  1597  7598  7596    1
  1598  5188  5187    1
  1599  7381  7380    1
  1600  6609  6611    1
  1601  4634  4632    1
  1602  7398  7399    1
  1603  7666  7665    1
  1604  4167  4169    1
  1605  7680  7682    1
  1606  3658  3657    1
  1607  3793  3792    1
  1608  5595  5596    1
  1609  5808  5809    1
  1610  5808  5810    1
  1611  4308  4310    1
  1612  7212  7214    1
  1613  2542  2541    1
  1614  3414  3415    1
  1615  5704  5703    1
  1616  3718  3717    1
  1617  4564  4563    1
  1618  3815  3813    1
  1619  6489  6491    1
  1620  6489  6490    1
  1621  7665  7667    1
  1622  2544  2546    1
  1623  2544  2545    1
  1624  5844  5846    1
  1625  5001  5002    1
  1626  5001  5003    1
  1627  2593  2592    1
  1628  2633  2631    1
  1629  3590  3588    1
  1630  5187  5189    1
  1631  5769  5770    1
  1632  4453  4452    1
  1633  4695  4696    1
  1634  5014  5013    1
  1635  2469  2471    1
  1636  4059  4061    1
  1637  4059  4060    1
  1638  7596  7597    1
  1639  3311  3309    1
  1640  4718  4716    1
  1641  6335  6333    1
  1642  2916  2917    1
  1643  2594  2592    1
  1644  2619  2620    1
  1645  2619  2621    1
  1646  6146  6144    1
  1647  5519  5517    1
  1648  3601  3600    1
  1649  2488  2487    1
  1650  6428  6426    1
  1651  7896  7898    1
  1652  5779  5778    1
  1653  4563  4565    1
  1654  6921  6922    1
  1655  7270  7269    1
  1656  6762  6763    1
  1657  6762  6764    1
  1658  6837  6839    1
  1659  6837  6838    1
  1660  7162  7161    1
  1661  3956  3954    1
  1662  4105  4104    1
  1663  7875  7876    1
  1664  7181  7179    1
  1665  4107  4109    1
  1666  4107  4108    1
  1667  6844  6843    1
  1668  3571  3570    1
  1669  4974  4976    1
  1670  4974  4975    1
  1671  3717  3719    1
  1672  5128  5127    1
  1673  2814  2815    1
  1674  2814  2816    1
  1675  3786  3788    1
  1676  3657  3659    1
  1677  7163  7161    1
  1678  6042  6043    1
  1679  4730  4728    1
  1680  7778  7776    1
  1681  5481  5482    1
  1682  5481  5483    1
  1683  6145  6144    1
  1684  5517  5518    1
  1685  4963  4962    1
  1686  7131  7133    1
  1687  7131  7132    1
  1688  2541  2543    1
  1689  7380  7382    1
  1690  5132  5130    1
  1691  6843  6845    1
  1692  3735  3737    1
  1693  3735  3736    1
  1694  3570  3572    1
  1695  4307  4305    1
  1696  5778  5780    1
  1697  3309  3310    1
  1698  5703  5705    1
  1699  6427  6426    1
  1700  3589  3588    1
  1701  6634  6633    1
  1702  7957  7956    1
  1703  6938  6936    1
  1704  5357  5355    1
  1705  7956  7958    1
  1706  7269  7271    1
  1707  3813  3814    1
  1708  3494  3492    1
  1709  8005  8004    1
  1710  4454  4452    1
  1711  4879  4878    1
  1712  8032  8031    1
  1713  4688  4686    1
  1714  2298  2300    1
  1715  2298  2299    1
  1716  5011  5010    1
  1717  5013  5015    1
  1718  3600  3602    1
  1719  6937  6936    1
  1720  3492  3493    1
  1721  2945  2943    1
  1722  8031  8033    1
  1723  5130  5131    1
  1724  4435  4434    1
  1725  7481  7479    1
  1726  4280  4278    1
  1727  6333  6334    1
  1728  4716  4717    1
  1729  3475  3474    1
  1730  4664  4662    1
  1731  2630  2628    1
  1732  7765  7764    1
  1733  2943  2944    1
  1734  5127  5129    1
  1735  3227  3225    1
  1736  4104  4106    1
  1737  2690  2688    1
  1738  6883  6882    1
  1739  4340  4338    1
  1740  4962  4964    1
  1741  3625  3624    1
  1742  2213  2211    1
  1743  7685  7683    1
  1744  7766  7764    1
  1745  7776  7777    1
  1746  5012  5010    1
  1747  7874  7872    1
  1748  3954  3955    1
  1749  3474  3476    1
  1750  7867  7866    1
  1751  7432  7431    1
  1752  7866  7868    1
  1753  7179  7180    1
  1754  4878  4880    1
  1755  3922  3921    1
  1756  5402  5400    1
  1757  3973  3972    1
  1758  5342  5340    1
  1759  3923  3921    1
  1760  5255  5253    1
  1761  2788  2787    1
  1762  4728  4729    1
  1763  3624  3626    1
  1764  3524  3522    1
  1765  6376  6375    1
  1766  6910  6909    1
  1767  2877  2879    1
  1768  2877  2878    1
  1769  7357  7356    1
  1770  5341  5340    1
  1771  2211  2212    1
  1772  8004  8006    1
  1773  4434  4436    1
  1774  3944  3942    1
  1775  7431  7433    1
  1776  4030  4029    1
  1777  6884  6882    1
  1778  7356  7358    1
  1779  5254  5253    1
  1780  4305  4306    1
  1781  3490  3489    1
  1782  2688  2689    1
  1783  3943  3942    1
  1784  4662  4663    1
  1785  7559  7557    1
  1786  6633  6635    1
  1787  4804  4803    1
  1788  5399  5397    1
  1789  5355  5356    1
  1790  7107  7108    1
  1791  7107  7109    1
  1792  3350  3348    1
  1793  6560  6558    1
  1794  7348  7347    1
  1795  4338  4339    1
  1796  4686  4687    1
  1797  4029  4031    1
  1798  7633  7632    1
  1799  3932  3930    1
  1800  4278  4279    1
  1801  6529  6528    1
  1802  5400  5401    1
  1803  6375  6377    1
  1804  2628  2629    1
  1805  3225  3226    1
  1806  7479  7480    1
  1807  4559  4557    1
  1808  5580  5581    1
  1809  5580  5582    1
  1810  3972  3974    1
  1811  2176  2175    1
  1812  4592  4590    1
  1813  7683  7684    1
  1814  7872  7873    1
  1815  3820  3819    1
  1816  7340  7338    1
  1817  2456  2454    1
  1818  5507  5505    1
  1819  6530  6528    1
  1820  2787  2789    1
  1821  3313  3312    1
  1822  7690  7689    1
  1823  5966  5964    1
  1824  3348  3349    1
  1825  4399  4398    1
  1826  3522  3523    1
  1827  3819  3821    1
  1828  7301  7299    1
  1829  3489  3491    1
  1830  3007  3006    1
  1831  6134  6132    1
  1832  7300  7299    1
  1833  7632  7634    1
  1834  6909  6911    1
  1835  6558  6559    1
  1836  4590  4591    1
  1837  3271  3270    1
  1838  2175  2177    1
  1839  7347  7349    1
  1840  4052  4050    1
  1841  8074  8073    1
  1842  7606  7605    1
  1843  4959  4960    1
  1844  4959  4961    1
  1845  3008  3006    1
  1846  7557  7558    1
  1847  7246  7245    1
  1848  3031  3030    1
  1849  3857  3855    1
  1850  2273  2271    1
  1851  3856  3855    1
  1852  7689  7691    1
  1853  7203  7205    1
  1854  7203  7204    1
  1855  7090  7089    1
  1856  5631  5633    1
  1857  5631  5632    1
  1858  2798  2796    1
  1859  4363  4362    1
  1860  4803  4805    1
  1861  3599  3597    1
  1862  5397  5398    1
  1863  7605  7607    1
  1864  4557  4558    1
  1865  6805  6804    1
  1866  6804  6806    1
  1867  2389  2388    1
  1868  3270  3272    1
  1869  7247  7245    1
  1870  3030  3032    1
  1871  7200  7201    1
  1872  7200  7202    1
  1873  7430  7428    1
  1874  7864  7863    1
  1875  6874  6873    1
  1876  8073  8075    1
  1877  5349  5351    1
  1878  5349  5350    1
  1879  7389  7390    1
  1880  7389  7391    1
  1881  6298  6297    1
  1882  3314  3312    1
  1883  6564  6565    1
  1884  6564  6566    1
  1885  2459  2457    1
  1886  2179  2178    1
  1887  3836  3834    1
  1888  3930  3931    1
  1889  3637  3636    1
  1890  7421  7419    1
  1891  6810  6812    1
  1892  6810  6811    1
  1893  6297  6299    1
  1894  4050  4051    1
  1895  5964  5965    1
  1896  5425  5424    1
  1897  2388  2390    1
  1898  7419  7420    1
  1899  6292  6291    1
  1900  7338  7339    1
  1901  3154  3153    1
  1902  2454  2455    1
  1903  7488  7490    1
  1904  7488  7489    1
  1905  3329  3327    1
  1906  2178  2180    1
  1907  5505  5506    1
  1908  3384  3386    1
  1909  3384  3385    1
  1910  7882  7881    1
  1911  5204  5202    1
  1912  4763  4761    1
  1913  4117  4116    1
  1914  2728  2727    1
  1915  3988  3987    1
  1916  6824  6822    1
  1917  3295  3294    1
  1918  4362  4364    1
  1919  5908  5907    1
  1920  4398  4400    1
  1921  3854  3852    1
  1922  6132  6133    1
  1923  6104  6102    1
  1924  2457  2458    1
  1925  6873  6875    1
  1926  6639  6641    1
  1927  6639  6640    1
  1928  2359  2358    1
  1929  2648  2646    1
  1930  5532  5533    1
  1931  5532  5534    1
  1932  6782  6780    1
  1933  2796  2797    1
  1934  4855  4854    1
  1935  2271  2272    1
  1936  3869  3867    1
  1937  5681  5679    1
  1938  7089  7091    1
  1939  2727  2729    1
  1940  6895  6894    1
  1941  5740  5739    1
  1942  3597  3598    1
  1943  5324  5322    1
  1944  4118  4116    1
  1945  7881  7883    1
  1946  5322  5323    1
  1947  6291  6293    1
  1948  3834  3835    1
  1949  5907  5909    1
  1950  2192  2190    1
  1951  7428  7429    1
  1952  2358  2360    1
  1953  7863  7865    1
  1954  4761  4762    1
  1955  4996  4995    1
  1956  3636  3638    1
  1957  3153  3155    1
  1958  5191  5190    1
  1959  5424  5426    1
  1960  5202  5203    1
  1961  5739  5741    1
  1962  5491  5490    1
  1963  5989  5988    1
  1964  6894  6896    1
  1965  4854  4856    1
  1966  7839  7841    1
  1967  7839  7840    1
  1968  7732  7731    1
  1969  3327  3328    1
  1970  7693  7692    1
  1971  7056  7057    1
  1972  7056  7058    1
  1973  3987  3989    1
  1974  5212  5211    1
  1975  7155  7156    1
  1976  7155  7157    1
  1977  5677  5676    1
  1978  5190  5192    1
  1979  2603  2601    1
  1980  6822  6823    1
  1981  6035  6033    1
  1982  2191  2190    1
  1983  4995  4997    1
  1984  4213  4212    1
  1985  5211  5213    1
  1986  6102  6103    1
  1987  7948  7947    1
  1988  2646  2647    1
  1989  8051  8049    1
  1990  3294  3296    1
  1991  3852  3853    1
  1992  6543  6544    1
  1993  6543  6545    1
  1994  7949  7947    1
  1995  3867  3868    1
  1996  2601  2602    1
  1997  6780  6781    1
  1998  5988  5990    1
  1999  7733  7731    1
  2000  5679  5680    1
  2001  3399  3400    1
  2002  3399  3401    1
  2003  6517  6516    1
  2004  5492  5490    1
  2005  4713  4715    1
  2006  4713  4714    1
  2007  7692  7694    1
  2008  4212  4214    1
  2009  5678  5676    1
  2010  6033  6034    1
  2011  6073  6072    1
  2012  6518  6516    1
  2013  3902  3900    1
  2014  7747  7746    1
  2015  8049  8050    1
  2016  3178  3177    1
  2017  3179  3177    1
  2018  4655  4653    1
  2019  6072  6074    1
  2020  6617  6615    1
  2021  7032  7033    1
  2022  7032  7034    1
  2023  3900  3901    1
  2024  7746  7748    1
  2025  6736  6735    1
  2026  6953  6951    1
  2027  6952  6951    1
  2028  6735  6737    1
  2029  4653  4654    1
  2030  6615  6616    1
  2031  4640  4638    1
  2032  4638  4639    1
  2033  2000   794    1
  2034  2013   929    1
  2035  2001   796    1
  2036  2028   944    1
  2037  2003   798    1
  2038  2005   800    1
  2039  2055   971    1
  2040  2027   943    1
  2041  2019   935    1
  2042  2017   933    1
  2043  2022   938    1
  2044  2060   976    1
  2045  2067   983    1
  2046  2077   993    1
  2047  2078   995    1
  2048  2079   996    1
  2049  2061   977    1
  2050  2063   979    1
  2051  2059   975    1
  2052  2064   980    1
  2053   796     2    1
  2054  2004   799    1
  2055  2006   801    1
  2056   794     1    1
  2057   971   224    1
  2058   798     3    1
  2059   933   186    1
  2060   800     4    1
  2061  2058   974    1
  2062  2014   930    1
  2063  2007   923    1
  2064  2012   928    1
  2065  2011   927    1
  2066  2024   940    1
  2067  2025   941    1
  2068  2049   965    1
  2069  2016   932    1
  2070   944   197    1
  2071  2008   924    1
  2072   935   188    1
  2073   938   191    1
  2074   943   196    1
  2075  2050   966    1
  2076  2026   942    1
  2077  2021   937    1
  2078  2023   939    1
  2079  2018   934    1
  2080  2015   931    1
  2081  2009   925    1
  2082  2010   926    1
  2083  2020   936    1
  2084   795  1999    1
  2085   795     1    1
  2086   995   247    1
  2087   980   233    1
  2088   979   232    1
  2089   977   230    1
  2090   993   246    1
  2091   975   228    1
  2092   983   236    1
  2093   996   248    1
  2094   976   229    1
  2095   923   149    1
  2096   930   183    1
  2097   932   185    1
  2098   940   193    1
  2099   941   194    1
  2100   965   218    1
  2101   929   182    1
  2102   928   172    1
  2103   927   171    1
  2104   924   150    1
  2105   797  2002    1
  2106   797     2    1
  2107  2052   968    1
  2108  2053   969    1
  2109  2062   978    1
  2110  2066   982    1
  2111  2056   972    1
  2112  2057   973    1
  2113  2065   981    1
  2114  2047   963    1
  2115  2048   964    1
  2116   970  2054    1
  2117   970   223    1
  2118   926   152    1
  2119   925   151    1
  2120   931   184    1
  2121   934   187    1
  2122   936   189    1
  2123   966   219    1
  2124   937   190    1
  2125   939   192    1
  2126   942   195    1
  2127   981   234    1
  2128   978   231    1
  2129   973   226    1
  2130   972   225    1
  2131   969   222    1
  2132   964   217    1
  2133   963   216    1
  2134   982   235    1
  2135   968   221    1
  2136   974   227    1
  2137   967  2051    1
  2138   967   220    1
  2139   799     3    1
  2140   801     4    1
  2141  1903   601    1
  2142  1903   152    1
  2143  1916   620    1
  2144  1916   189    1
  2145  1906   609    1
  2146  1906   151    1
  2147  1907   600    1
  2148  1907   187    1
  2149  1908   602    1
  2150  1908   190    1
  2151  1909   608    1
  2152  1909   184    1
  2153  1911   605    1
  2154  1911   192    1
  2155  1918   621    1
  2156  1918   195    1
  2157  1946   622    1
  2158  1946   219    1
  2159  1939   601    1
  2160  1939   222    1
  2161  1945   225    1
  2162  1919   602    1
  2163  1919   217    1
  2164  1940   605    1
  2165  1940   221    1
  2166  1915   216    1
  2167  1951   622    1
  2168  1951   226    1
  2169  1952   231    1
  2170  1955   621    1
  2171  1955   234    1
  2172  1956   620    1
  2173  1956   235    1
  2174  1901   185    1
  2175  1901   589    1
  2176  1895   171    1
  2177  1895   582    1
  2178  1904   150    1
  2179  1904   604    1
  2180  1897   172    1
  2181  1897   590    1
  2182  1900   193    1
  2183  1900   584    1
  2184  1905   218    1
  2185  1905   583    1
  2186  1898   183    1
  2187  1898   587    1
  2188  1913   194    1
  2189  1913   610    1
  2190  1902   149    1
  2191  1902   603    1
  2192  1958   633    1
  2193  1958   227    1
  2194  1893     4    1
  2195  1943   607    1
  2196  1943   223    1
  2197  1942   224    1
  2198  1997   634    1
  2199  1997   647    1
  2200  1987   646    1
  2201  1914   588    1
  2202  1914   220    1
  2203  1998   635    1
  2204  1998   648    1
  2205  1892   586    1
  2206  1892     3    1
  2207  1910   188    1
  2208  1910   606    1
  2209  1912   191    1
  2210  1912   607    1
  2211  1891     1    1
  2212  1891   588    1
  2213  1949   196    1
  2214  1949   634    1
  2215  1950   197    1
  2216  1950   635    1
  2217  1899   186    1
  2218  1899   586    1
  2219  1986   645    1
  2220  1986   633    1
  2221  1894     2    1
  2222  1894   623    1
  2223  1896   182    1
  2224  1896   585    1
  2225  1917   228    1
  2226  1917   582    1
  2227  1954   247    1
  2228  1954   603    1
  2229  1957   248    1
  2230  1957   610    1
  2231  1953   604    1
  2232  1948   236    1
  2233  1948   587    1
  2234  1941   584    1
  2235  1947   233    1
  2236  1947   590    1
  2237  1929   583    1
  2238  1944   230    1
  2239  1944   589    1
  2240   602   753    1
  2241   602   807    1
  2242   605   746    1
  2243   605   838    1
  2244   608   754    1
  2245   608   839    1
  2246   621   758    1
  2247   621   863    1
  2248   622   770    1
  2249   622   865    1
  2250   609   748    1
  2251   609   861    1
  2252   620   756    1
  2253   620   864    1
  2254   600   745    1
  2255   600   806    1
  2256   601   750    1
  2257   601   808    1
  2258     2   660    1
  2259     2   759    1
  2260   182   668    1
  2261   186   677    1
  2262   188   667    1
  2263   191   672    1
  2264   645   720    1
  2265     1   658    1
  2266     1   755    1
  2267   196   679    1
  2268   196   824    1
  2269   197   682    1
  2270   229   748    1
  2271   229   730    1
  2272   228   746    1
  2273   228   729    1
  2274   247   753    1
  2275   247   781    1
  2276   246   754    1
  2277   246   769    1
  2278   236   750    1
  2279   236   780    1
  2280   248   770    1
  2281   248   782    1
  2282   230   756    1
  2283   230   731    1
  2284   233   758    1
  2285   233   751    1
  2286   232   745    1
  2287   232   749    1
  2288   149   660    1
  2289   150   658    1
  2290   171   667    1
  2291   172   668    1
  2292   185   679    1
  2293   193   682    1
  2294   194   677    1
  2295   218   720    1
  2296   183   672    1
  2297   584   719    1
  2298   584  1017    1
  2299   583   728    1
  2300   583  1015    1
  2301   582   718    1
  2302   582   994    1
  2303   587   724    1
  2304   587  1018    1
  2305   610   735    1
  2306   610  1045    1
  2307   604   732    1
  2308   604  1037    1
  2309   603   726    1
  2310   603  1034    1
  2311   590   733    1
  2312   590  1020    1
  2313   589   734    1
  2314   589  1019    1
  2315   588   731    1
  2316   588  1023    1
  2317   586   807    1
  2318   586   729    1
  2319   586  1022    1
  2320   623   769    1
  2321   623  1056    1
  2322   633   865    1
  2323   633   780    1
  2324   633  1069    1
  2325   607   838    1
  2326   607   751    1
  2327   607  1041    1
  2328   585   806    1
  2329   585   730    1
  2330   585  1021    1
  2331   634   781    1
  2332   634  1070    1
  2333   606   839    1
  2334   606   749    1
  2335   606  1040    1
  2336   635   864    1
  2337   635   782    1
  2338   635  1071    1
  2339   222   724    1
  2340   222   694    1
  2341   234   733    1
  2342   234   752    1
  2343   221   718    1
  2344   221   695    1
  2345   235   734    1
  2346   235   757    1
  2347   216   719    1
  2348   216   663    1
  2349   226   735    1
  2350   226   697    1
  2351   225   732    1
  2352   225   696    1
  2353   231   728    1
  2354   231   747    1
  2355   217   726    1
  2356   217   662    1
  2357   223   695    1
  2358   223   725    1
  2359   648   757    1
  2360   648   859    1
  2361   227   697    1
  2362   227   727    1
  2363   224   696    1
  2364   224   722    1
  2365   647   837    1
  2366   647  1042    1
  2367   220   723    1
  2368   220   868    1
  2369     4   663    1
  2370     4   717    1
  2371     3   662    1
  2372     3   716    1
  2373   646   836    1
  2374   646  1038    1
  2375   192   676    1
  2376   192   678    1
  2377   195   683    1
  2378   195   674    1
  2379   190   675    1
  2380   190   673    1
  2381   219   721    1
  2382   219   693    1
  2383   187   671    1
  2384   187   669    1
  2385   184   670    1
  2386   184   665    1
  2387   189   681    1
  2388   189   666    1
  2389   152   659    1
  2390   152   680    1
  2391   151   661    1
  2392   151   664    1
  2393   863   168    1
  2394   808   148    1
  2395   861   157    1
  2396   671    27    1
  2397   721    77    1
  2398   683    36    1
  2399   670    24    1
  2400   681    34    1
  2401   661    17    1
  2402   659    15    1
  2403   675    38    1
  2404   676    30    1
  2405   694    51    1
  2406   747    96    1
  2407   752   102    1
  2408   716    50    1
  2409   722    78    1
  2410   717    54    1
  2411   837   156    1
  2412   725    81    1
  2413   727    83    1
  2414   859   167    1
  2415   836   155    1
  2416   723    79    1
  2417   678    32    1
  2418   674    29    1
  2419   673    31    1
  2420   666    22    1
  2421   665    20    1
  2422   664    21    1
  2423   669    26    1
  2424   680    35    1
  2425   693    49    1
  2426  1016    77    1
  2427  1016    76    1
  2428   812    24    1
  2429   812    23    1
  2430   813    27    1
  2431   813    25    1
  2432   759    16    1
  2433   818    30    1
  2434   818    28    1
  2435   822    38    1
  2436   822    39    1
  2437   824    33    1
  2438   825    34    1
  2439   825    37    1
  2440   755    14    1
  2441  1059   169    1
  2442  1059   123    1
  2443  1033   146    1
  2444  1033    92    1
  2445  1035   148    1
  2446  1035    97    1
  2447  1036   147    1
  2448  1036    99    1
  2449  1044   157    1
  2450  1044    94    1
  2451  1039   153    1
  2452  1039    93    1
  2453  1043   154    1
  2454  1043   100    1
  2455  1057   170    1
  2456  1057   101    1
  2457  1058   168    1
  2458  1058   103    1
  2459  1037    88    1
  2460  1045    91    1
  2461   994    74    1
  2462  1034    82    1
  2463  1015    84    1
  2464  1020    89    1
  2465  1019    90    1
  2466  1018    80    1
  2467  1017    75    1
  2468  1040    95    1
  2469  1041    98    1
  2470  1071   136    1
  2471  1056   104    1
  2472  1069   134    1
  2473  1070   135    1
  2474  1023    87    1
  2475  1022    85    1
  2476  1021    86    1
  2477   816    29    1
  2478   816    28    1
  2479   862    35    1
  2480   862    76    1
  2481   803    20    1
  2482   803    16    1
  2483   817    31    1
  2484   817    33    1
  2485   802    22    1
  2486   802    14    1
  2487   826    49    1
  2488   826    37    1
  2489   823    32    1
  2490   823    39    1
  2491   810    21    1
  2492   810    25    1
  2493   809    26    1
  2494   809    23    1
  2495   898   102    1
  2496   898    89    1
  2497   895    96    1
  2498   895    84    1
  2499   883    55    1
  2500   883    91    1
  2501   882    53    1
  2502   882    88    1
  2503   881    55    1
  2504   881    83    1
  2505   871    53    1
  2506   871    78    1
  2507   870    52    1
  2508   870    81    1
  2509   869    51    1
  2510   869    80    1
  2511   868    79    1
  2512   867    52    1
  2513   867    74    1
  2514   860    18    1
  2515   860    82    1
  2516   858    19    1
  2517   858    75    1
  2518   793    19    1
  2519   793    54    1
  2520   792    18    1
  2521   792    50    1
  2522  1038   155    1
  2523  1042   156    1
  2524  1046   124    1
  2525  1046   167    1
  2526   899   124    1
  2527   899    90    1
  2528   901   100    1
  2529   901   104    1
  2530   893    85    1
  2531   893    93    1
  2532   911    97    1
  2533   911   134    1
  2534   811    24    1
  2535   811    20    1
  2536   894    86    1
  2537   894    94    1
  2538   897    92    1
  2539   897    95    1
  2540   913   123    1
  2541   913   136    1
  2542   814    27    1
  2543   814    26    1
  2544   820    36    1
  2545   820    29    1
  2546   815    34    1
  2547   815    22    1
  2548   805    15    1
  2549   805    35    1
  2550   900    98    1
  2551   900   103    1
  2552   819    30    1
  2553   819    32    1
  2554   821    38    1
  2555   821    31    1
  2556   912    99    1
  2557   912   135    1
  2558   804    17    1
  2559   804    21    1
  2560   896    87    1
  2561   896   101    1
  2562   866    77    1
  2563   866    49    1
  2564    27  1157    1
  2565    27  1083    1
  2566    34  1175    1
  2567    34  1085    1
  2568    36  1176    1
  2569    36  1084    1
  2570    17  1123    1
  2571    17  1090    1
  2572    30  1169    1
  2573    30  1086    1
  2574    38  1168    1
  2575    38  1126    1
  2576    77  1218    1
  2577    77  1088    1
  2578    15  1105    1
  2579    15  1089    1
  2580    24  1167    1
  2581    24  1081    1
  2582   157  1123    1
  2583   157  1382    1
  2584   154  1167    1
  2585   154  1378    1
  2586   169  1218    1
  2587   153  1169    1
  2588   170  1175    1
  2589   146  1157    1
  2590   146  1366    1
  2591   147  1168    1
  2592   148  1105    1
  2593   168  1176    1
  2594    32  1113    1
  2595    31  1117    1
  2596    22  1111    1
  2597    29  1121    1
  2598    26  1109    1
  2599    21  1104    1
  2600    20  1107    1
  2601    49  1137    1
  2602    35  1118    1
  2603    85  1119    1
  2604    86  1310    1
  2605    87  1173    1
  2606    92  1109    1
  2607    92  1319    1
  2608    93  1113    1
  2609    93  1171    1
  2610    93  1321    1
  2611    94  1104    1
  2612    94  1324    1
  2613    95  1323    1
  2614    96  1219    1
  2615    97  1118    1
  2616    97  1179    1
  2617    97  1325    1
  2618    98  1181    1
  2619    99  1117    1
  2620    99  1182    1
  2621    99  1327    1
  2622   100  1107    1
  2623   100  1328    1
  2624   101  1111    1
  2625   101  1195    1
  2626   101  1330    1
  2627   102  1222    1
  2628   103  1121    1
  2629   103  1196    1
  2630   103  1331    1
  2631   104  1333    1
  2632   123  1137    1
  2633   123  1199    1
  2634   123  1335    1
  2635   124  1223    1
  2636   134  1197    1
  2637   135  1221    1
  2638   136  1224    1
  2639    55  1198    1
  2640    53  1180    1
  2641    52  1177    1
  2642    51  1170    1
  2643    19  1124    1
  2644    18  1122    1
  2645    76  1193    1
  2646    25  1102    1
  2647    37  1147    1
  2648    39  1108    1
  2649    23  1106    1
  2650    28  1114    1
  2651    80  1095    1
  2652    14  1087    1
  2653    82  1093    1
  2654    91  1112    1
  2655    90  1110    1
  2656    89  1099    1
  2657    88  1194    1
  2658    88  1100    1
  2659    74  1092    1
  2660    75  1172    1
  2661    75  1101    1
  2662    33  1136    1
  2663    84  1183    1
  2664    84  1103    1
  2665    16  1091    1
  2666   156  1221    1
  2667   156  1120    1
  2668   156  1381    1
  2669    50  1119    1
  2670    50  1082    1
  2671    50  1266    1
  2672   155  1220    1
  2673   155  1115    1
  2674   155  1380    1
  2675    83  1197    1
  2676    83  1097    1
  2677    83  1316    1
  2678   167  1224    1
  2679   167  1174    1
  2680   167  1383    1
  2681    78  1178    1
  2682    78  1098    1
  2683    78  1306    1
  2684    81  1181    1
  2685    81  1094    1
  2686    81  1311    1
  2687    79  1173    1
  2688    79  1096    1
  2689    79  1305    1
  2690    54  1125    1
  2691    54  1116    1
  2692    54  1283    1
  2693  1178   355    1
  2694  1089   265    1
  2695  1085   262    1
  2696  1220   397    1
  2697  1088   266    1
  2698  1081   258    1
  2699  1083   260    1
  2700  1084   261    1
  2701  1086   263    1
  2702  1126   303    1
  2703  1125   302    1
  2704  1090   268    1
  2705  1180   356    1
  2706  1198   375    1
  2707  1124   300    1
  2708  1223   400    1
  2709  1170   339    1
  2710  1122   293    1
  2711  1222   399    1
  2712  1177   354    1
  2713  1219   396    1
  2714  1094   271    1
  2715  1097   274    1
  2716  1082   259    1
  2717  1120   295    1
  2718  1096   273    1
  2719  1116   292    1
  2720  1115   290    1
  2721  1174   351    1
  2722  1098   275    1
  2723  1194   361    1
  2724  1183   360    1
  2725  1182   358    1
  2726  1179   357    1
  2727  1196   373    1
  2728  1195   369    1
  2729  1171   338    1
  2730  1199   376    1
  2731  1172   340    1
  2732  1099   276    1
  2733  1112   291    1
  2734  1114   296    1
  2735  1108   287    1
  2736  1106   282    1
  2737  1103   281    1
  2738  1102   279    1
  2739  1101   278    1
  2740  1100   277    1
  2741  1136   304    1
  2742  1095   272    1
  2743  1093   270    1
  2744  1092   267    1
  2745  1091   269    1
  2746  1193   362    1
  2747  1087   264    1
  2748  1147   316    1
  2749  1110   288    1
  2750  1319   285    1
  2751  1324   283    1
  2752  1321   294    1
  2753  1325   299    1
  2754  1330   286    1
  2755  1327   298    1
  2756  1328   284    1
  2757  1335   315    1
  2758  1331   301    1
  2759  1316   274    1
  2760  1381   295    1
  2761  1383   351    1
  2762  1283   292    1
  2763  1305   273    1
  2764  1266   259    1
  2765  1306   275    1
  2766  1380   290    1
  2767  1311   271    1
  2768  1379   354    1
  2769  1379   328    1
  2770  1378   326    1
  2771  1377   339    1
  2772  1377   280    1
  2773  1369   293    1
  2774  1369   327    1
  2775  1394   375    1
  2776  1394   395    1
  2777  1395   400    1
  2778  1395   353    1
  2779  1366   314    1
  2780  1393   399    1
  2781  1393   352    1
  2782  1382   297    1
  2783  1248   300    1
  2784  1248   266    1
  2785  1247   293    1
  2786  1247   258    1
  2787  1284   375    1
  2788  1284   263    1
  2789  1281   354    1
  2790  1281   260    1
  2791  1280   339    1
  2792  1280   261    1
  2793  1329   396    1
  2794  1329   265    1
  2795  1282   356    1
  2796  1282   262    1
  2797  1332   399    1
  2798  1332   268    1
  2799  1353   400    1
  2800  1353   303    1
  2801  1254   285    1
  2802  1254   267    1
  2803  1253   286    1
  2804  1253   277    1
  2805  1252   283    1
  2806  1252   276    1
  2807  1251   284    1
  2808  1251   270    1
  2809  1268   315    1
  2810  1268   278    1
  2811  1262   298    1
  2812  1262   288    1
  2813  1261   294    1
  2814  1261   291    1
  2815  1260   299    1
  2816  1260   281    1
  2817  1258   301    1
  2818  1258   272    1
  2819  1314   395    1
  2820  1314   266    1
  2821  1264   353    1
  2822  1264   262    1
  2823  1244   280    1
  2824  1244   265    1
  2825  1269   327    1
  2826  1269   303    1
  2827  1246   297    1
  2828  1246   268    1
  2829  1259   328    1
  2830  1259   263    1
  2831  1265   352    1
  2832  1265   261    1
  2833  1256   314    1
  2834  1256   260    1
  2835  1250   326    1
  2836  1250   258    1
  2837  1320   369    1
  2838  1320   288    1
  2839  1318   373    1
  2840  1318   276    1
  2841  1317   361    1
  2842  1317   277    1
  2843  1315   360    1
  2844  1315   281    1
  2845  1307   358    1
  2846  1307   270    1
  2847  1304   340    1
  2848  1304   278    1
  2849  1322   376    1
  2850  1322   291    1
  2851  1303   338    1
  2852  1303   267    1
  2853  1308   357    1
  2854  1308   272    1
  2855  1263   304    1
  2856  1263   273    1
  2857  1312   292    1
  2858  1312   362    1
  2859  1270   287    1
  2860  1270   351    1
  2861  1267   316    1
  2862  1267   275    1
  2863  1255   271    1
  2864  1255   279    1
  2865  1243   290    1
  2866  1243   264    1
  2867  1245   295    1
  2868  1245   269    1
  2869  1257   296    1
  2870  1257   274    1
  2871  1249   259    1
  2872  1249   282    1
  2873  1365   316    1
  2874  1365   401    1
  2875  1364   304    1
  2876  1364   398    1
  2877  1323   282    1
  2878  1363   362    1
  2879  1363   374    1
  2880  1333   269    1
  2881  1326   296    1
  2882  1326   359    1
  2883  1313   264    1
  2884  1313   347    1
  2885  1310   279    1
  2886  1309   287    1
  2887  1309   289    1
  2888   293  1436    1
  2889   293  1456    1
  2890   354  1512    1
  2891   354  1488    1
  2892   399  1534    1
  2893   399  1708    1
  2894   356  1509    1
  2895   356  1515    1
  2896   400  1557    1
  2897   400  1535    1
  2898   375  1528    1
  2899   375  1529    1
  2900   339  1493    1
  2901   339  1649    1
  2902   300  1441    1
  2903   300  1453    1
  2904   396  1530    1
  2905   396  1705    1
  2906   353  1454    1
  2907   353  1480    1
  2908   297  1437    1
  2909   297  1602    1
  2910   314  1442    1
  2911   314  1439    1
  2912   326  1445    1
  2913   326  1444    1
  2914   327  1449    1
  2915   327  1447    1
  2916   280  1435    1
  2917   280  1588    1
  2918   328  1448    1
  2919   328  1450    1
  2920   352  1465    1
  2921   352  1658    1
  2922   395  1525    1
  2923   395  1531    1
  2924   294  1448    1
  2925   294  1438    1
  2926   357  1526    1
  2927   357  1493    1
  2928   358  1533    1
  2929   358  1456    1
  2930   360  1468    1
  2931   360  1530    1
  2932   361  1532    1
  2933   361  1515    1
  2934   369  1514    1
  2935   369  1535    1
  2936   373  1524    1
  2937   373  1534    1
  2938   286  1454    1
  2939   286  1417    1
  2940   301  1465    1
  2941   301  1440    1
  2942   284  1445    1
  2943   284  1423    1
  2944   315  1525    1
  2945   315  1452    1
  2946   283  1437    1
  2947   283  1430    1
  2948   285  1442    1
  2949   285  1433    1
  2950   298  1449    1
  2951   298  1446    1
  2952   338  1451    1
  2953   338  1488    1
  2954   376  1536    1
  2955   376  1529    1
  2956   340  1492    1
  2957   340  1453    1
  2958   299  1435    1
  2959   299  1479    1
  2960   258  1405    1
  2961   258  1406    1
  2962   287  1447    1
  2963   287  1438    1
  2964   290  1421    1
  2965   290  1432    1
  2966   292  1422    1
  2967   292  1434    1
  2968   295  1426    1
  2969   295  1429    1
  2970   296  1450    1
  2971   296  1440    1
  2972   261  1410    1
  2973   261  1570    1
  2974   362  1531    1
  2975   362  1479    1
  2976   262  1412    1
  2977   262  1413    1
  2978   263  1414    1
  2979   263  1418    1
  2980   259  1405    1
  2981   259  1407    1
  2982   264  1415    1
  2983   264  1417    1
  2984   303  1475    1
  2985   303  1443    1
  2986   304  1477    1
  2987   304  1446    1
  2988   265  1419    1
  2989   265  1575    1
  2990   274  1414    1
  2991   274  1425    1
  2992   266  1422    1
  2993   266  1416    1
  2994   316  1480    1
  2995   316  1452    1
  2996   268  1420    1
  2997   268  1578    1
  2998   269  1428    1
  2999   269  1423    1
  3000   271  1409    1
  3001   271  1424    1
  3002   282  1444    1
  3003   282  1433    1
  3004   273  1411    1
  3005   273  1431    1
  3006   275  1412    1
  3007   275  1427    1
  3008   351  1475    1
  3009   351  1455    1
  3010   279  1439    1
  3011   279  1430    1
  3012   260  1409    1
  3013   260  1408    1
  3014   272  1410    1
  3015   272  1425    1
  3016   272  1581    1
  3017   277  1413    1
  3018   277  1432    1
  3019   277  1586    1
  3020   270  1406    1
  3021   270  1429    1
  3022   270  1577    1
  3023   267  1408    1
  3024   267  1407    1
  3025   267  1574    1
  3026   276  1420    1
  3027   276  1424    1
  3028   276  1585    1
  3029   281  1419    1
  3030   281  1434    1
  3031   281  1589    1
  3032   288  1443    1
  3033   288  1431    1
  3034   288  1601    1
  3035   278  1416    1
  3036   278  1427    1
  3037   278  1587    1
  3038   291  1418    1
  3039   291  1455    1
  3040   291  1604    1
  3041   302  1468    1
  3042   302  1609    1
  3043   289  1451    1
  3044   289  1597    1
  3045   347  1514    1
  3046   347  1484    1
  3047   347  1654    1
  3048   355  1492    1
  3049   355  1663    1
  3050   359  1524    1
  3051   359  1669    1
  3052   374  1526    1
  3053   374  1684    1
  3054   397  1532    1
  3055   397  1537    1
  3056   397  1706    1
  3057   398  1533    1
  3058   398  1556    1
  3059   398  1707    1
  3060   401  1536    1
  3061   401  1715    1
  3062  1426   440    1
  3063  1421   436    1
  3064  1411   426    1
  3065  1415   427    1
  3066  1477   499    1
  3067  1428   443    1
  3068  1509   507    1
  3069  1528   542    1
  3070  1557   581    1
  3071  1556   572    1
  3072  1512   509    1
  3073  1441   449    1
  3074  1436   437    1
  3075  1484   483    1
  3076  1537   556    1
  3077  1690   536    1
  3078  1690   550    1
  3079  1694   566    1
  3080  1694   545    1
  3081  1679   546    1
  3082  1679   521    1
  3083  1688   524    1
  3084  1688   552    1
  3085  1666   537    1
  3086  1666   495    1
  3087  1640   459    1
  3088  1640   488    1
  3089  1667   477    1
  3090  1667   544    1
  3091  1668   547    1
  3092  1668   466    1
  3093  1646   502    1
  3094  1646   462    1
  3095  1599   433    1
  3096  1599   474    1
  3097  1602   451    1
  3098  1701   548    1
  3099  1701   541    1
  3100  1605   458    1
  3101  1605   464    1
  3102  1608   469    1
  3103  1608   467    1
  3104  1610   508    1
  3105  1610   448    1
  3106  1611   460    1
  3107  1611   482    1
  3108  1612   452    1
  3109  1612   455    1
  3110  1613   456    1
  3111  1613   457    1
  3112  1623   463    1
  3113  1623   467    1
  3114  1635   487    1
  3115  1635   541    1
  3116  1657   506    1
  3117  1657   474    1
  3118  1658   482    1
  3119  1632   468    1
  3120  1632   464    1
  3121  1588   448    1
  3122  1591   446    1
  3123  1591   451    1
  3124  1593   442    1
  3125  1593   457    1
  3126  1594   447    1
  3127  1594   455    1
  3128  1707   572    1
  3129  1706   556    1
  3130  1663   507    1
  3131  1669   509    1
  3132  1684   542    1
  3133  1597   437    1
  3134  1654   483    1
  3135  1715   581    1
  3136  1609   449    1
  3137  1573   429    1
  3138  1573   435    1
  3139  1614   504    1
  3140  1614   465    1
  3141  1595   436    1
  3142  1595   450    1
  3143  1582   429    1
  3144  1582   441    1
  3145  1569   424    1
  3146  1569   423    1
  3147  1568   420    1
  3148  1568   422    1
  3149  1571   428    1
  3150  1571   430    1
  3151  1583   428    1
  3152  1583   444    1
  3153  1567   420    1
  3154  1567   421    1
  3155  1578   434    1
  3156  1596   438    1
  3157  1596   454    1
  3158  1584   426    1
  3159  1584   453    1
  3160  1580   424    1
  3161  1580   439    1
  3162  1575   432    1
  3163  1576   438    1
  3164  1576   431    1
  3165  1598   440    1
  3166  1598   445    1
  3167  1570   425    1
  3168  1659   504    1
  3169  1659   491    1
  3170  1572   427    1
  3171  1572   433    1
  3172  1592   456    1
  3173  1592   447    1
  3174  1616   499    1
  3175  1616   469    1
  3176  1590   452    1
  3177  1590   446    1
  3178  1579   443    1
  3179  1579   442    1
  3180  1680   548    1
  3181  1680   508    1
  3182  1627   506    1
  3183  1627   487    1
  3184  1603   463    1
  3185  1603   458    1
  3186  1607   468    1
  3187  1607   460    1
  3188  1585   434    1
  3189  1586   430    1
  3190  1601   465    1
  3191  1587   431    1
  3192  1581   425    1
  3193  1589   432    1
  3194  1574   423    1
  3195  1600   437    1
  3196  1600   466    1
  3197  1577   421    1
  3198  1606   449    1
  3199  1606   462    1
  3200  1693   542    1
  3201  1693   545    1
  3202  1649   495    1
  3203  1705   544    1
  3204  1708   550    1
  3205  1709   581    1
  3206  1709   552    1
  3207  1662   509    1
  3208  1662   488    1
  3209  1604   435    1
  3210  1665   507    1
  3211  1665   521    1
  3212   581  1885    1
  3213   581  1883    1
  3214   572  1878    1
  3215   572  1829    1
  3216   556  1803    1
  3217   556  1865    1
  3218   449  1733    1
  3219   449  1749    1
  3220   437  1739    1
  3221   437  1729    1
  3222   483  1744    1
  3223   483  1737    1
  3224   542  1880    1
  3225   542  1762    1
  3226   509  1784    1
  3227   509  1740    1
  3228   507  1745    1
  3229   507  1796    1
  3230   566  1875    1
  3231   566  1881    1
  3232   566  1889    1
  3233   459  1754    1
  3234   459  1732    1
  3235   459  1777    1
  3236   477  1765    1
  3237   477  1814    1
  3238   547  1846    1
  3239   547  1824    1
  3240   547  1874    1
  3241   546  1826    1
  3242   546  1872    1
  3243   537  1843    1
  3244   537  1794    1
  3245   537  1858    1
  3246   536  1808    1
  3247   536  1789    1
  3248   536  1854    1
  3249   524  1768    1
  3250   524  1795    1
  3251   524  1842    1
  3252   502  1771    1
  3253   502  1827    1
  3254   452  1735    1
  3255   443  1822    1
  3256   463  1739    1
  3257   468  1784    1
  3258   456  1769    1
  3259   427  1744    1
  3260   548  1880    1
  3261   506  1885    1
  3262   499  1878    1
  3263   446  1778    1
  3264   446  1756    1
  3265   446  1841    1
  3266   442  1786    1
  3267   442  1812    1
  3268   442  1847    1
  3269   550  1809    1
  3270   550  1838    1
  3271   469  1830    1
  3272   469  1846    1
  3273   469  1877    1
  3274   466  1730    1
  3275   466  1752    1
  3276   544  1779    1
  3277   544  1832    1
  3278   462  1742    1
  3279   462  1758    1
  3280   460  1810    1
  3281   460  1808    1
  3282   460  1870    1
  3283   458  1852    1
  3284   458  1754    1
  3285   458  1863    1
  3286   447  1750    1
  3287   447  1764    1
  3288   447  1837    1
  3289   521  1757    1
  3290   521  1807    1
  3291   433  1780    1
  3292   433  1768    1
  3293   433  1833    1
  3294   508  1855    1
  3295   508  1843    1
  3296   508  1886    1
  3297   545  1790    1
  3298   545  1861    1
  3299   488  1736    1
  3300   488  1760    1
  3301   487  1835    1
  3302   487  1875    1
  3303   487  1884    1
  3304   552  1851    1
  3305   552  1840    1
  3306   495  1746    1
  3307   495  1753    1
  3308   467  1825    1
  3309   474  1783    1
  3310   482  1787    1
  3311   448  1761    1
  3312   541  1834    1
  3313   451  1763    1
  3314   451  1776    1
  3315   455  1747    1
  3316   455  1743    1
  3317   457  1741    1
  3318   457  1767    1
  3319   464  1781    1
  3320   438  1866    1
  3321   438  1733    1
  3322   438  1806    1
  3323   429  1773    1
  3324   429  1762    1
  3325   429  1793    1
  3326   440  1766    1
  3327   440  1829    1
  3328   440  1818    1
  3329   420  1731    1
  3330   420  1729    1
  3331   420  1734    1
  3332   436  1748    1
  3333   436  1803    1
  3334   436  1801    1
  3335   428  1804    1
  3336   428  1745    1
  3337   428  1791    1
  3338   426  1798    1
  3339   426  1737    1
  3340   426  1782    1
  3341   424  1751    1
  3342   424  1740    1
  3343   424  1770    1
  3344   504  1849    1
  3345   504  1883    1
  3346   504  1873    1
  3347   439  1778    1
  3348   439  1789    1
  3349   439  1850    1
  3350   422  1750    1
  3351   422  1732    1
  3352   422  1792    1
  3353   441  1810    1
  3354   441  1794    1
  3355   441  1856    1
  3356   491  1852    1
  3357   491  1881    1
  3358   491  1887    1
  3359   444  1835    1
  3360   444  1771    1
  3361   444  1859    1
  3362   445  1786    1
  3363   445  1824    1
  3364   445  1857    1
  3365   450  1780    1
  3366   450  1826    1
  3367   450  1864    1
  3368   453  1830    1
  3369   453  1795    1
  3370   453  1868    1
  3371   454  1855    1
  3372   454  1765    1
  3373   454  1867    1
  3374   425  1746    1
  3375   425  1787    1
  3376   425  1799    1
  3377   432  1779    1
  3378   432  1761    1
  3379   432  1816    1
  3380   431  1742    1
  3381   431  1834    1
  3382   431  1817    1
  3383   430  1757    1
  3384   430  1783    1
  3385   430  1805    1
  3386   435  1790    1
  3387   435  1781    1
  3388   435  1821    1
  3389   434  1809    1
  3390   434  1763    1
  3391   434  1820    1
  3392   421  1730    1
  3393   421  1741    1
  3394   421  1755    1
  3395   465  1851    1
  3396   465  1825    1
  3397   465  1862    1
  3398   423  1736    1
  3399   423  1747    1
  3400   423  1772    1
  3401  1766   559    1
  3402  1812   522    1
  3403  1748   555    1
  3404  1798   564    1
  3405  1866   570    1
  3406  1751   554    1
  3407  1773   560    1
  3408  1756   513    1
  3409  1804   565    1
  3410  1849   569    1
  3411  1731   549    1
  3412  1764   515    1
  3413  1735   484    1
  3414  1769   498    1
  3415  1822   512    1
  3416  1767   476    1
  3417  1776   480    1
  3418  1840   493    1
  3419  1861   496    1
  3420  1838   492    1
  3421  1760   475    1
  3422  1753   472    1
  3423  1752   471    1
  3424  1743   470    1
  3425  1833   517    1
  3426  1847   522    1
  3427  1884   540    1
  3428  1841   513    1
  3429  1837   515    1
  3430  1863   511    1
  3431  1870   523    1
  3432  1877   532    1
  3433  1886   531    1
  3434  1874   532    1
  3435  1842   517    1
  3436  1872   539    1
  3437  1777   511    1
  3438  1858   531    1
  3439  1814   528    1
  3440  1827   530    1
  3441  1889   540    1
  3442  1854   523    1
  3443  1864   539    1
  3444  1867   528    1
  3445  1868   535    1
  3446  1887   543    1
  3447  1792   514    1
  3448  1857   538    1
  3449  1856   534    1
  3450  1859   530    1
  3451  1850   533    1
  3452  1785   555    1
  3453  1785   490    1
  3454  1844   560    1
  3455  1844   503    1
  3456  1819   549    1
  3457  1819   498    1
  3458  1890   570    1
  3459  1890   526    1
  3460  1823   559    1
  3461  1823   512    1
  3462  1876   565    1
  3463  1876   529    1
  3464  1871   564    1
  3465  1871   525    1
  3466  1839   569    1
  3467  1839   486    1
  3468  1815   554    1
  3469  1815   484    1
  3470  1759   471    1
  3471  1759   489    1
  3472  1788   472    1
  3473  1788   505    1
  3474  1775   475    1
  3475  1775   497    1
  3476  1869   493    1
  3477  1869   527    1
  3478  1845   496    1
  3479  1845   519    1
  3480  1832   516    1
  3481  1758   500    1
  3482  1807   510    1
  3483  1860   492    1
  3484  1860   520    1
  3485  1770   479    1
  3486  1873   518    1
  3487  1793   485    1
  3488  1806   473    1
  3489  1734   461    1
  3490  1818   501    1
  3491  1782   478    1
  3492  1801   494    1
  3493  1791   481    1
  3494  1888   529    1
  3495  1888   518    1
  3496  1796   481    1
  3497  1797   479    1
  3498  1797   503    1
  3499  1738   486    1
  3500  1738   461    1
  3501  1865   494    1
  3502  1879   501    1
  3503  1879   525    1
  3504  1836   485    1
  3505  1836   526    1
  3506  1749   473    1
  3507  1774   478    1
  3508  1774   490    1
  3509  1772   497    1
  3510  1816   516    1
  3511  1817   500    1
  3512  1820   520    1
  3513  1821   519    1
  3514  1862   527    1
  3515  1805   510    1
  3516  1755   489    1
  3517  1799   505    1
  3518  1802   472    1
  3519  1802   557    1
  3520  1800   553    1
  3521  1800   470    1
  3522  1848   493    1
  3523  1848   562    1
  3524  1831   567    1
  3525  1831   471    1
  3526  1828   561    1
  3527  1828   475    1
  3528  1853   492    1
  3529  1853   563    1
  3530  1882   496    1
  3531  1882   568    1
  3532  1813   558    1
  3533  1813   480    1
  3534  1811   551    1
  3535  1811   476    1
  3536   565  1724    1
  3537   565  1702    1
  3538   569  1727    1
  3539   569  1703    1
  3540   549  1710    1
  3541   549  1695    1
  3542   559  1717    1
  3543   559  1545    1
  3544   560  1719    1
  3545   560  1699    1
  3546   564  1722    1
  3547   564  1550    1
  3548   554  1713    1
  3549   554  1696    1
  3550   555  1714    1
  3551   555  1542    1
  3552   570  1728    1
  3553   570  1704    1
  3554   513  1671    1
  3555   517  1672    1
  3556   515  1673    1
  3557   522  1675    1
  3558   523  1674    1
  3559   531  1677    1
  3560   532  1676    1
  3561   540  1678    1
  3562   511  1670    1
  3563   573  1716    1
  3564   573  1713    1
  3565   578  1726    1
  3566   578  1724    1
  3567   574  1718    1
  3568   574  1714    1
  3569   577  1725    1
  3570   577  1722    1
  3571   543  1664    1
  3572   543  1692    1
  3573   539  1660    1
  3574   539  1687    1
  3575   538  1661    1
  3576   538  1682    1
  3577   535  1655    1
  3578   535  1691    1
  3579   533  1653    1
  3580   533  1689    1
  3581   534  1656    1
  3582   534  1685    1
  3583   530  1652    1
  3584   530  1683    1
  3585   528  1651    1
  3586   528  1686    1
  3587   571  1711    1
  3588   571  1710    1
  3589   580  1721    1
  3590   580  1728    1
  3591   514  1648    1
  3592   514  1681    1
  3593   576  1720    1
  3594   576  1719    1
  3595   575  1712    1
  3596   575  1717    1
  3597   579  1723    1
  3598   579  1727    1
  3599   567  1725    1
  3600   567  1703    1
  3601   567  1552    1
  3602   493  1630    1
  3603   493  1645    1
  3604   492  1629    1
  3605   492  1647    1
  3606   551  1712    1
  3607   551  1695    1
  3608   551  1539    1
  3609   558  1716    1
  3610   558  1698    1
  3611   558  1544    1
  3612   496  1631    1
  3613   496  1650    1
  3614   561  1723    1
  3615   561  1699    1
  3616   561  1548    1
  3617   562  1718    1
  3618   562  1702    1
  3619   562  1547    1
  3620   563  1720    1
  3621   563  1700    1
  3622   563  1549    1
  3623   553  1711    1
  3624   553  1696    1
  3625   553  1540    1
  3626   568  1726    1
  3627   568  1704    1
  3628   568  1553    1
  3629   475  1621    1
  3630   475  1639    1
  3631   476  1620    1
  3632   476  1642    1
  3633   470  1615    1
  3634   470  1638    1
  3635   471  1617    1
  3636   471  1643    1
  3637   472  1618    1
  3638   472  1644    1
  3639   557  1721    1
  3640   557  1697    1
  3641   557  1543    1
  3642   480  1622    1
  3643   480  1641    1
  3644   494  1660    1
  3645   494  1474    1
  3646   529  1678    1
  3647   529  1630    1
  3648   478  1655    1
  3649   478  1471    1
  3650   479  1653    1
  3651   479  1625    1
  3652   503  1674    1
  3653   503  1621    1
  3654   481  1652    1
  3655   481  1628    1
  3656   486  1670    1
  3657   486  1617    1
  3658   484  1671    1
  3659   484  1615    1
  3660   518  1664    1
  3661   518  1637    1
  3662   461  1648    1
  3663   461  1619    1
  3664   490  1672    1
  3665   490  1483    1
  3666   485  1656    1
  3667   485  1633    1
  3668   473  1651    1
  3669   473  1624    1
  3670   512  1675    1
  3671   512  1487    1
  3672   501  1661    1
  3673   501  1476    1
  3674   525  1676    1
  3675   525  1489    1
  3676   526  1677    1
  3677   526  1631    1
  3678   498  1673    1
  3679   498  1620    1
  3680   510  1687    1
  3681   510  1628    1
  3682   510  1498    1
  3683   527  1691    1
  3684   527  1637    1
  3685   527  1506    1
  3686   520  1689    1
  3687   520  1636    1
  3688   520  1501    1
  3689   519  1692    1
  3690   519  1633    1
  3691   519  1500    1
  3692   516  1686    1
  3693   516  1634    1
  3694   516  1499    1
  3695   505  1685    1
  3696   505  1626    1
  3697   505  1497    1
  3698   497  1681    1
  3699   497  1625    1
  3700   497  1495    1
  3701   489  1682    1
  3702   489  1619    1
  3703   489  1494    1
  3704   500  1683    1
  3705   500  1624    1
  3706   500  1496    1
  3707  1634   322    1
  3708  1636   324    1
  3709  1700   391    1
  3710  1697   388    1
  3711  1698   389    1
  3712  1626   320    1
  3713  1622   310    1
  3714  1629   311    1
  3715  1618   307    1
  3716  1638   329    1
  3717  1650   337    1
  3718  1647   336    1
  3719  1643   333    1
  3720  1639   330    1
  3721  1641   331    1
  3722  1642   332    1
  3723  1644   334    1
  3724  1645   335    1
  3725  1539   404    1
  3726  1553   417    1
  3727  1544   407    1
  3728  1547   409    1
  3729  1540   403    1
  3730  1543   412    1
  3731  1548   413    1
  3732  1549   411    1
  3733  1552   415    1
  3734  1520   346    1
  3735  1520   380    1
  3736  1521   345    1
  3737  1521   384    1
  3738  1522   349    1
  3739  1522   378    1
  3740  1523   348    1
  3741  1523   382    1
  3742  1516   341    1
  3743  1516   377    1
  3744  1517   342    1
  3745  1517   381    1
  3746  1527   350    1
  3747  1527   385    1
  3748  1519   343    1
  3749  1519   383    1
  3750  1518   344    1
  3751  1518   379    1
  3752  1507   332    1
  3753  1507   368    1
  3754  1511   333    1
  3755  1511   370    1
  3756  1502   330    1
  3757  1502   363    1
  3758  1510   334    1
  3759  1510   371    1
  3760  1508   336    1
  3761  1508   367    1
  3762  1503   331    1
  3763  1503   364    1
  3764  1504   329    1
  3765  1504   366    1
  3766  1505   335    1
  3767  1505   365    1
  3768  1513   337    1
  3769  1513   372    1
  3770  1563   415    1
  3771  1563   414    1
  3772  1564   417    1
  3773  1564   416    1
  3774  1565   412    1
  3775  1565   419    1
  3776  1566   413    1
  3777  1566   418    1
  3778  1562   411    1
  3779  1562   410    1
  3780  1559   407    1
  3781  1559   405    1
  3782  1558   403    1
  3783  1558   402    1
  3784  1560   404    1
  3785  1560   408    1
  3786  1561   409    1
  3787  1561   406    1
  3788  1551   392    1
  3789  1551   416    1
  3790  1550   414    1
  3791  1546   390    1
  3792  1546   410    1
  3793  1545   408    1
  3794  1542   406    1
  3795  1541   387    1
  3796  1541   405    1
  3797  1538   386    1
  3798  1538   402    1
  3799  1555   394    1
  3800  1555   419    1
  3801  1554   393    1
  3802  1554   418    1
  3803  1506   384    1
  3804  1499   381    1
  3805  1501   383    1
  3806  1500   385    1
  3807  1498   382    1
  3808  1497   380    1
  3809  1496   379    1
  3810  1495   377    1
  3811  1494   378    1
  3812  1457   305    1
  3813  1457   329    1
  3814  1458   306    1
  3815  1458   333    1
  3816  1461   308    1
  3817  1461   332    1
  3818  1460   309    1
  3819  1460   330    1
  3820  1462   310    1
  3821  1462   331    1
  3822  1463   311    1
  3823  1463   336    1
  3824  1464   313    1
  3825  1464   335    1
  3826  1466   312    1
  3827  1466   337    1
  3828  1459   307    1
  3829  1459   334    1
  3830  1470   343    1
  3831  1470   318    1
  3832  1476   349    1
  3833  1474   348    1
  3834  1473   346    1
  3835  1473   323    1
  3836  1472   344    1
  3837  1472   321    1
  3838  1471   345    1
  3839  1469   342    1
  3840  1469   319    1
  3841  1467   341    1
  3842  1467   317    1
  3843  1478   350    1
  3844  1478   325    1
  3845  1487   368    1
  3846  1481   305    1
  3847  1481   364    1
  3848  1482   306    1
  3849  1482   363    1
  3850  1483   365    1
  3851  1485   308    1
  3852  1485   366    1
  3853  1486   309    1
  3854  1486   367    1
  3855  1489   370    1
  3856  1490   312    1
  3857  1490   371    1
  3858  1491   313    1
  3859  1491   372    1
  3860   342  1374    1
  3861   342  1286    1
  3862   343  1368    1
  3863   343  1290    1
  3864   344  1373    1
  3865   344  1287    1
  3866   345  1371    1
  3867   345  1288    1
  3868   346  1372    1
  3869   346  1295    1
  3870   348  1370    1
  3871   348  1292    1
  3872   349  1375    1
  3873   349  1298    1
  3874   350  1376    1
  3875   350  1301    1
  3876   341  1367    1
  3877   341  1285    1
  3878   417  1402    1
  3879   417  1362    1
  3880   415  1360    1
  3881   415  1403    1
  3882   413  1404    1
  3883   413  1357    1
  3884   411  1398    1
  3885   411  1361    1
  3886   409  1400    1
  3887   409  1358    1
  3888   407  1399    1
  3889   407  1356    1
  3890   412  1401    1
  3891   412  1359    1
  3892   404  1397    1
  3893   404  1355    1
  3894   403  1396    1
  3895   403  1354    1
  3896   393  1339    1
  3897   393  1216    1
  3898   392  1342    1
  3899   392  1215    1
  3900   391  1341    1
  3901   391  1214    1
  3902   390  1338    1
  3903   390  1213    1
  3904   389  1340    1
  3905   389  1212    1
  3906   388  1337    1
  3907   388  1211    1
  3908   387  1334    1
  3909   387  1210    1
  3910   386  1336    1
  3911   386  1209    1
  3912   394  1343    1
  3913   394  1217    1
  3914   310  1132    1
  3915   309  1274    1
  3916   308  1130    1
  3917   307  1273    1
  3918   306  1271    1
  3919   305  1127    1
  3920   311  1278    1
  3921   377  1396    1
  3922   377  1289    1
  3923   385  1404    1
  3924   385  1302    1
  3925   384  1403    1
  3926   384  1300    1
  3927   383  1399    1
  3928   383  1299    1
  3929   382  1400    1
  3930   382  1297    1
  3931   381  1401    1
  3932   381  1294    1
  3933   379  1402    1
  3934   379  1291    1
  3935   378  1397    1
  3936   378  1293    1
  3937   380  1398    1
  3938   380  1296    1
  3939   312  1277    1
  3940   313  1279    1
  3941   331  1356    1
  3942   331  1150    1
  3943   332  1355    1
  3944   332  1151    1
  3945   333  1360    1
  3946   334  1359    1
  3947   335  1358    1
  3948   336  1361    1
  3949   337  1362    1
  3950   405  1368    1
  3951   405  1385    1
  3952   405  1229    1
  3953   402  1367    1
  3954   402  1384    1
  3955   402  1226    1
  3956   329  1354    1
  3957   329  1148    1
  3958   330  1357    1
  3959   416  1373    1
  3960   416  1392    1
  3961   416  1240    1
  3962   419  1374    1
  3963   419  1391    1
  3964   419  1242    1
  3965   418  1376    1
  3966   418  1387    1
  3967   418  1241    1
  3968   414  1371    1
  3969   414  1390    1
  3970   414  1239    1
  3971   410  1372    1
  3972   410  1388    1
  3973   410  1236    1
  3974   408  1375    1
  3975   408  1389    1
  3976   408  1234    1
  3977   406  1370    1
  3978   406  1386    1
  3979   406  1231    1
  3980   323  1277    1
  3981   323  1350    1
  3982   323  1144    1
  3983   325  1279    1
  3984   325  1352    1
  3985   325  1146    1
  3986   317  1271    1
  3987   317  1344    1
  3988   317  1138    1
  3989   320  1273    1
  3990   320  1346    1
  3991   320  1141    1
  3992   318  1274    1
  3993   318  1345    1
  3994   318  1139    1
  3995   319  1272    1
  3996   319  1349    1
  3997   319  1140    1
  3998   321  1275    1
  3999   321  1348    1
  4000   321  1142    1
  4001   322  1276    1
  4002   322  1347    1
  4003   322  1143    1
  4004   324  1278    1
  4005   324  1351    1
  4006   324  1145    1
  4007   365  1288    1
  4008   364  1185    1
  4009   363  1285    1
  4010   372  1301    1
  4011   371  1295    1
  4012   370  1298    1
  4013   368  1189    1
  4014   367  1290    1
  4015   366  1186    1
  4016  1334   105    1
  4017  1343   113    1
  4018  1342   112    1
  4019  1341   111    1
  4020  1340   110    1
  4021  1339   109    1
  4022  1338   108    1
  4023  1336   106    1
  4024  1287    58    1
  4025  1337   107    1
  4026  1286    57    1
  4027  1292    61    1
  4028  1276    45    1
  4029  1272    41    1
  4030  1275    44    1
  4031  1344   125    1
  4032  1352   133    1
  4033  1345   126    1
  4034  1351   132    1
  4035  1350   131    1
  4036  1349   130    1
  4037  1348   129    1
  4038  1347   128    1
  4039  1346   127    1
  4040  1386   160    1
  4041  1392   166    1
  4042  1389   163    1
  4043  1384   158    1
  4044  1385   159    1
  4045  1390   164    1
  4046  1391   165    1
  4047  1387   161    1
  4048  1388   162    1
  4049  1302    73    1
  4050  1300    72    1
  4051  1299    71    1
  4052  1297    70    1
  4053  1296    69    1
  4054  1293    67    1
  4055  1291    66    1
  4056  1294    68    1
  4057  1289    65    1
  4058  1164   139    1
  4059  1164    61    1
  4060  1163   141    1
  4061  1163    62    1
  4062  1162   140    1
  4063  1162    59    1
  4064  1161   142    1
  4065  1161    58    1
  4066  1160   138    1
  4067  1160    60    1
  4068  1158   137    1
  4069  1158    56    1
  4070  1159   143    1
  4071  1159    57    1
  4072  1166   145    1
  4073  1166    64    1
  4074  1165   144    1
  4075  1165    63    1
  4076  1225   114    1
  4077  1225   173    1
  4078  1235   117    1
  4079  1235   181    1
  4080  1237   120    1
  4081  1237   180    1
  4082  1232   121    1
  4083  1232   176    1
  4084  1227   115    1
  4085  1227   174    1
  4086  1228   116    1
  4087  1228   175    1
  4088  1230   119    1
  4089  1230   177    1
  4090  1238   122    1
  4091  1238   179    1
  4092  1233   118    1
  4093  1233   178    1
  4094  1217   130    1
  4095  1216   133    1
  4096  1215   129    1
  4097  1214   127    1
  4098  1213   131    1
  4099  1212   132    1
  4100  1211   128    1
  4101  1209   125    1
  4102  1210   126    1
  4103  1139   126    1
  4104  1143   128    1
  4105  1142   129    1
  4106  1141   127    1
  4107  1140   130    1
  4108  1138   125    1
  4109  1144   131    1
  4110  1146   133    1
  4111  1145   132    1
  4112  1240   142    1
  4113  1241   145    1
  4114  1242   143    1
  4115  1204    68    1
  4116  1204   178    1
  4117  1201    67    1
  4118  1201   174    1
  4119  1202    66    1
  4120  1202   179    1
  4121  1203    69    1
  4122  1203   176    1
  4123  1200    65    1
  4124  1200   173    1
  4125  1205    70    1
  4126  1205   177    1
  4127  1206    71    1
  4128  1206   175    1
  4129  1236   141    1
  4130  1207    72    1
  4131  1207   180    1
  4132  1234   144    1
  4133  1208    73    1
  4134  1208   181    1
  4135  1239   140    1
  4136  1231   139    1
  4137  1229   138    1
  4138  1226   137    1
  4139  1127   105    1
  4140  1128   109    1
  4141  1128    40    1
  4142  1132   110    1
  4143  1133   111    1
  4144  1133    46    1
  4145  1135   112    1
  4146  1135    48    1
  4147  1134   113    1
  4148  1134    47    1
  4149  1130   106    1
  4150  1129   107    1
  4151  1129    43    1
  4152  1131   108    1
  4153  1131    42    1
  4154  1152    67    1
  4155  1152   120    1
  4156  1151   115    1
  4157  1150   116    1
  4158  1149    65    1
  4159  1149   117    1
  4160  1148   114    1
  4161  1156    73    1
  4162  1156   122    1
  4163  1155    71    1
  4164  1155   121    1
  4165  1154    72    1
  4166  1154   119    1
  4167  1153    69    1
  4168  1153   118    1
  4169  1186   158    1
  4170  1188   162    1
  4171  1188    60    1
  4172  1189   163    1
  4173  1187   160    1
  4174  1187    59    1
  4175  1184   161    1
  4176  1184    56    1
  4177  1185   159    1
  4178  1190   164    1
  4179  1190    63    1
  4180  1191   165    1
  4181  1191    62    1
  4182  1192   166    1
  4183  1192    64    1
  4184   112   909    1
  4185   112  1054    1
  4186   105   902    1
  4187   105  1048    1
  4188   106   903    1
  4189   106  1047    1
  4190   107   904    1
  4191   107   762    1
  4192   108   906    1
  4193   108  1050    1
  4194   109   907    1
  4195   109  1051    1
  4196   110   905    1
  4197   110   764    1
  4198   111   908    1
  4199   111   766    1
  4200   113   910    1
  4201   113  1055    1
  4202   131   920    1
  4203   131  1067    1
  4204   132  1066    1
  4205   132   777    1
  4206   128  1063    1
  4207   128   773    1
  4208   129   918    1
  4209   129  1064    1
  4210   130   919    1
  4211   130  1065    1
  4212   133   922    1
  4213   133  1068    1
  4214   125   914    1
  4215   125  1060    1
  4216   126   915    1
  4217   126  1061    1
  4218   127  1062    1
  4219   127   774    1
  4220   138   915    1
  4221   138  1073    1
  4222   137   914    1
  4223   137  1072    1
  4224   144   921    1
  4225   144  1074    1
  4226   141   920    1
  4227   141  1076    1
  4228   140   917    1
  4229   140  1079    1
  4230   145   922    1
  4231   145  1080    1
  4232   139   916    1
  4233   139  1075    1
  4234   143   919    1
  4235   143  1077    1
  4236   142   918    1
  4237   142  1078    1
  4238    70   853    1
  4239    70   889    1
  4240    71   855    1
  4241    71   888    1
  4242    72   856    1
  4243    72   887    1
  4244    73   857    1
  4245    73   892    1
  4246    67   850    1
  4247    67   890    1
  4248    65   849    1
  4249    65   884    1
  4250    66   851    1
  4251    66   885    1
  4252    68   854    1
  4253    68   886    1
  4254    69   852    1
  4255    69   891    1
  4256   161  1051    1
  4257   161  1028    1
  4258   161   830    1
  4259   160  1049    1
  4260   160  1027    1
  4261   160   829    1
  4262   159  1048    1
  4263   159  1025    1
  4264   159   828    1
  4265   158  1047    1
  4266   158  1024    1
  4267   158   827    1
  4268   162  1050    1
  4269   162  1029    1
  4270   162   832    1
  4271   163  1052    1
  4272   163  1026    1
  4273   163   831    1
  4274   166  1054    1
  4275   166  1032    1
  4276   166   835    1
  4277   164  1053    1
  4278   164  1030    1
  4279   164   833    1
  4280   165  1055    1
  4281   165  1031    1
  4282   165   834    1
  4283   120   907    1
  4284   120  1030    1
  4285   120   743    1
  4286   115   903    1
  4287   115  1026    1
  4288   115   737    1
  4289   116   905    1
  4290   116  1025    1
  4291   116   738    1
  4292   117   906    1
  4293   117  1028    1
  4294   117   739    1
  4295   118   904    1
  4296   118  1031    1
  4297   118   740    1
  4298   119   909    1
  4299   119  1027    1
  4300   119   741    1
  4301   121   908    1
  4302   121  1029    1
  4303   121   742    1
  4304   122   910    1
  4305   122  1032    1
  4306   122   744    1
  4307   114   902    1
  4308   114  1024    1
  4309   114   736    1
  4310    56   840    1
  4311    56   884    1
  4312    56   698    1
  4313    57   841    1
  4314    57   886    1
  4315    57   699    1
  4316    58   843    1
  4317    58   885    1
  4318    58   700    1
  4319    60   844    1
  4320    60   888    1
  4321    60   702    1
  4322    59   842    1
  4323    59   887    1
  4324    59   701    1
  4325    61   845    1
  4326    61   889    1
  4327    61   703    1
  4328    62   846    1
  4329    62   891    1
  4330    62   704    1
  4331    63   847    1
  4332    63   890    1
  4333    63   705    1
  4334    64   848    1
  4335    64   892    1
  4336    64   706    1
  4337   179  1078    1
  4338   180  1079    1
  4339    40   840    1
  4340    40   850    1
  4341    44   843    1
  4342    44   853    1
  4343    45   854    1
  4344    45   689    1
  4345    46   855    1
  4346    46   690    1
  4347    47   846    1
  4348    47   857    1
  4349    48   848    1
  4350    48   856    1
  4351    41   841    1
  4352    41   851    1
  4353   181  1080    1
  4354    43   852    1
  4355    43   687    1
  4356    42   844    1
  4357    42   849    1
  4358   173  1072    1
  4359   174  1074    1
  4360   175  1073    1
  4361   176  1076    1
  4362   178  1077    1
  4363   177  1075    1
  4364   916   251    1
  4365   921   254    1
  4366  1052   616    1
  4367  1049   613    1
  4368   917   252    1
  4369  1053   617    1
  4370  1060   625    1
  4371  1063   626    1
  4372  1062   627    1
  4373  1061   624    1
  4374  1068   632    1
  4375  1067   631    1
  4376  1066   629    1
  4377  1065   630    1
  4378  1064   628    1
  4379   845   203    1
  4380   847   204    1
  4381   842   201    1
  4382   760   237    1
  4383   760   612    1
  4384   761   238    1
  4385   761   611    1
  4386   762   239    1
  4387   768   618    1
  4388   768   245    1
  4389   765   615    1
  4390   765   242    1
  4391   763   614    1
  4392   763   241    1
  4393   767   619    1
  4394   767   244    1
  4395   764   240    1
  4396   766   243    1
  4397   743   598    1
  4398   744   599    1
  4399   736   591    1
  4400   742   596    1
  4401   741   594    1
  4402   740   597    1
  4403   737   593    1
  4404   738   592    1
  4405   739   595    1
  4406   777   629    1
  4407   773   626    1
  4408   776   630    1
  4409   776   256    1
  4410   774   627    1
  4411   772   624    1
  4412   772   250    1
  4413   771   625    1
  4414   771   249    1
  4415   779   632    1
  4416   779   257    1
  4417   775   628    1
  4418   775   253    1
  4419   778   631    1
  4420   778   255    1
  4421   828   612    1
  4422   833   617    1
  4423   829   613    1
  4424   835   619    1
  4425   830   615    1
  4426   832   614    1
  4427   827   611    1
  4428   831   616    1
  4429   834   618    1
  4430   785   251    1
  4431   785   639    1
  4432   790   252    1
  4433   790   643    1
  4434   787   255    1
  4435   787   641    1
  4436   784   250    1
  4437   784   637    1
  4438   783   249    1
  4439   783   636    1
  4440   791   257    1
  4441   791   644    1
  4442   788   256    1
  4443   788   640    1
  4444   786   254    1
  4445   786   638    1
  4446   789   253    1
  4447   789   642    1
  4448   880   631    1
  4449   880   644    1
  4450   879   632    1
  4451   879   643    1
  4452   878   630    1
  4453   878   642    1
  4454   877   628    1
  4455   877   639    1
  4456   876   626    1
  4457   876   640    1
  4458   705   204    1
  4459   706   206    1
  4460   874   629    1
  4461   874   637    1
  4462   872   624    1
  4463   872   636    1
  4464   873   625    1
  4465   873   638    1
  4466   875   627    1
  4467   875   641    1
  4468   698   198    1
  4469   699   199    1
  4470   700   200    1
  4471   701   201    1
  4472   702   202    1
  4473   703   203    1
  4474   704   205    1
  4475   692   214    1
  4476   692   206    1
  4477   690   213    1
  4478   689   212    1
  4479   688   211    1
  4480   688   200    1
  4481   687   210    1
  4482   686   207    1
  4483   686   202    1
  4484   685   209    1
  4485   685   199    1
  4486   684   208    1
  4487   684   198    1
  4488   691   215    1
  4489   691   205    1
  4490   707   207    1
  4491   707     5    1
  4492   708   209    1
  4493   708     6    1
  4494   709   208    1
  4495   709    11    1
  4496   710   212    1
  4497   710     7    1
  4498   711   211    1
  4499   711     9    1
  4500   713   213    1
  4501   713     8    1
  4502   715   215    1
  4503   715    13    1
  4504   714   214    1
  4505   714    10    1
  4506   712   210    1
  4507   712    12    1
  4508   632  1966    1
  4509   632  1938    1
  4510   631  1965    1
  4511   631  1937    1
  4512   629  1962    1
  4513   629  1936    1
  4514   628  1964    1
  4515   628  1934    1
  4516   627  1963    1
  4517   627  1933    1
  4518   626  1961    1
  4519   626  1935    1
  4520   625  1960    1
  4521   625  1931    1
  4522   624  1959    1
  4523   624  1930    1
  4524   630  1967    1
  4525   630  1932    1
  4526   596  1992    1
  4527   595  1995    1
  4528   598  1994    1
  4529   599  1996    1
  4530   594  1991    1
  4531   593  1990    1
  4532   593   652    1
  4533   591  1988    1
  4534   591   649    1
  4535   597  1993    1
  4536   592  1989    1
  4537   592   651    1
  4538   249  1968    1
  4539   249  1006    1
  4540   256  1975    1
  4541   256  1013    1
  4542   257  1974    1
  4543   257  1014    1
  4544   255  1971    1
  4545   255  1012    1
  4546   254  1972    1
  4547   254  1011    1
  4548   253  1976    1
  4549   253  1010    1
  4550   252  1973    1
  4551   252  1009    1
  4552   251  1970    1
  4553   251  1008    1
  4554   250  1969    1
  4555   250  1007    1
  4556   240  1962    1
  4557   240   987    1
  4558   239  1961    1
  4559   239   986    1
  4560   238  1960    1
  4561   238   985    1
  4562   237  1959    1
  4563   237   984    1
  4564   617  1926    1
  4565   617  1973    1
  4566   616  1925    1
  4567   616  1972    1
  4568   615  1922    1
  4569   615  1974    1
  4570   614  1924    1
  4571   614  1971    1
  4572   611  1921    1
  4573   611  1968    1
  4574   618  1927    1
  4575   618  1975    1
  4576   613  1923    1
  4577   613  1970    1
  4578   612  1920    1
  4579   612  1969    1
  4580   619  1928    1
  4581   619  1976    1
  4582   243  1963    1
  4583   243   990    1
  4584   245  1967    1
  4585   245   992    1
  4586   242  1966    1
  4587   242   989    1
  4588   244  1964    1
  4589   244   991    1
  4590   241  1965    1
  4591   241   988    1
  4592   213  1936    1
  4593   213   960    1
  4594   215  1937    1
  4595   215   962    1
  4596   214  1938    1
  4597   214   961    1
  4598   212  1935    1
  4599   212   959    1
  4600   211  1934    1
  4601   211   958    1
  4602   210  1933    1
  4603   210   957    1
  4604   209  1932    1
  4605   209   956    1
  4606   208  1931    1
  4607   208   955    1
  4608   207  1930    1
  4609   207   954    1
  4610   643  1994    1
  4611   643  1984    1
  4612   638  1990    1
  4613   638  1981    1
  4614   637  1989    1
  4615   637  1980    1
  4616   636  1988    1
  4617   636  1977    1
  4618   640  1993    1
  4619   640  1979    1
  4620   644  1995    1
  4621   644  1985    1
  4622   642  1996    1
  4623   642  1978    1
  4624   641  1992    1
  4625   641  1983    1
  4626   639  1991    1
  4627   639  1982    1
  4628   204  1926    1
  4629   204   951    1
  4630   205  1927    1
  4631   205   952    1
  4632   199   946    1
  4633   198  1922    1
  4634   198   945    1
  4635   206  1928    1
  4636   206   953    1
  4637   203   950    1
  4638   202  1924    1
  4639   202   949    1
  4640   201  1923    1
  4641   201   948    1
  4642   200   947    1
  4643    12   656    1
  4644    12  1983    1
  4645    12  1004    1
  4646     6  1978    1
  4647     6   998    1
  4648     7  1979    1
  4649     7   999    1
  4650    11   655    1
  4651    11  1981    1
  4652    11  1003    1
  4653    13   657    1
  4654    13  1985    1
  4655    13  1005    1
  4656    10   653    1
  4657    10  1984    1
  4658    10  1002    1
  4659     9  1982    1
  4660     9  1001    1
  4661     8   654    1
  4662     8  1980    1
  4663     8  1000    1
  4664     5   650    1
  4665     5  1977    1
  4666     5   997    1
  4667  2103   654    1
  4668  2099   650    1
  4669  2101   652    1
  4670  2100   651    1
  4671  2105   656    1
  4672  2106   657    1
  4673  2098   649    1
  4674  2102   653    1
  4675  2104   655    1
  4676   992  2076    1
  4677   987  2071    1
  4678   986  2070    1
  4679   984  2068    1
  4680   988  2072    1
  4681   989  2073    1
  4682   985  2069    1
  4683   991  2075    1
  4684   990  2074    1
  4685  1011  2094    1
  4686  1013  2096    1
  4687  1014  2097    1
  4688  1006  2089    1
  4689  1008  2091    1
  4690  1010  2093    1
  4691  1009  2092    1
  4692  1012  2095    1
  4693  1007  2090    1
  4694   957  2041    1
  4695   956  2040    1
  4696   954  2038    1
  4697   955  2039    1
  4698   958  2042    1
  4699   959  2043    1
  4700   960  2044    1
  4701   961  2045    1
  4702   962  2046    1
  4703   953  2037    1
  4704   952  2036    1
  4705   951  2035    1
  4706   950  2034    1
  4707   947  2031    1
  4708   949  2033    1
  4709   948  2032    1
  4710   946  2030    1
  4711   945  2029    1
  4712  1002  2085    1
  4713  1000  2083    1
  4714   997  2080    1
  4715  1003  2086    1
  4716  1004  2087    1
  4717  1005  2088    1
  4718   998  2081    1
  4719   999  2082    1
  4720  1001  2084    1
  4721  7114  7113    1
  4722  7113  7115    1
  4723  3982  3981    1
  4724  2813  2811    1
  4725  3981  3983    1
  4726  6931  6930    1
  4727  6930  6932    1
  4728  7629  7631    1
  4729  7629  7630    1
  4730  6718  6717    1
  4731  5123  5121    1
  4732  3926  3924    1
  4733  6374  6372    1
  4734  6372  6373    1
  4735  7722  7723    1
  4736  7722  7724    1
  4737  5406  5407    1
  4738  5406  5408    1
  4739  7402  7401    1
  4740  2811  2812    1
  4741  3924  3925    1
  4742  4891  4890    1
  4743  4923  4924    1
  4744  4923  4925    1
  4745  5121  5122    1
  4746  6717  6719    1
  4747  4917  4919    1
  4748  4917  4918    1
  4749  6272  6270    1
  4750  6404  6402    1
  4751  3910  3909    1
  4752  2999  2997    1
  4753  7700  7698    1
  4754  3843  3845    1
  4755  3843  3844    1
  4756  7401  7403    1
  4757  6216  6218    1
  4758  6216  6217    1
  4759  4892  4890    1
  4760  4447  4446    1
  4761  6755  6753    1
  4762  7308  7309    1
  4763  7308  7310    1
  4764  6389  6387    1
  4765  8003  8001    1
  4766  3608  3606    1
  4767  6270  6271    1
  4768  3442  3441    1
  4769  4769  4767    1
  4770  7858  7857    1
  4771  7265  7263    1
  4772  6527  6525    1
  4773  6698  6696    1
  4774  3909  3911    1
  4775  3389  3387    1
  4776  4811  4809    1
  4777  7332  7333    1
  4778  7332  7334    1
  4779  6402  6403    1
  4780  3440  3438    1
  4781  6707  6705    1
  4782  6706  6705    1
  4783  6940  6939    1
  4784  4322  4320    1
  4785  2242  2241    1
  4786  6939  6941    1
  4787  3652  3651    1
  4788  4224  4225    1
  4789  4224  4226    1
  4790  7698  7699    1
  4791  2997  2998    1
  4792  5513  5511    1
  4793  6905  6903    1
  4794  2356  2355    1
  4795  7229  7227    1
  4796  4545  4547    1
  4797  4545  4546    1
  4798  5867  5865    1
  4799  2243  2241    1
  4800  4446  4448    1
  4801  3387  3388    1
  4802  2409  2411    1
  4803  2409  2410    1
  4804  3441  3443    1
  4805  4321  4320    1
  4806  8001  8002    1
  4807  7902  7903    1
  4808  7902  7904    1
  4809  6753  6754    1
  4810  3779  3777    1
  4811  2440  2439    1
  4812  7290  7292    1
  4813  7290  7291    1
  4814  7857  7859    1
  4815  4767  4768    1
  4816  3651  3653    1
  4817  2396  2394    1
  4818  2144  2142    1
  4819  4614  4615    1
  4820  4614  4616    1
  4821  6525  6526    1
  4822  6387  6388    1
  4823  3772  3771    1
  4824  7263  7264    1
  4825  6534  6535    1
  4826  6534  6536    1
  4827  2131  2130    1
  4828  7573  7572    1
  4829  3606  3607    1
  4830  3771  3773    1
  4831  6877  6876    1
  4832  3438  3439    1
  4833  4248  4249    1
  4834  4248  4250    1
  4835  6696  6697    1
  4836  3578  3576    1
  4837  2776  2775    1
  4838  2439  2441    1
  4839  4809  4810    1
  4840  3576  3577    1
  4841  5105  5103    1
  4842  7045  7044    1
  4843  4166  4164    1
  4844  5110  5109    1
  4845  5476  5475    1
  4846  5865  5866    1
  4847  4788  4790    1
  4848  4788  4789    1
  4849  4517  4515    1
  4850  4846  4845    1
  4851  2143  2142    1
  4852  5109  5111    1
  4853  7660  7659    1
  4854  5248  5247    1
  4855  6876  6878    1
  4856  7707  7708    1
  4857  7707  7709    1
  4858  2355  2357    1
  4859  4433  4431    1
  4860  2777  2775    1
  4861  7044  7046    1
  4862  6903  6904    1
  4863  5511  5512    1
  4864  7227  7228    1
  4865  4100  4098    1
  4866  6268  6267    1
  4867  4733  4731    1
  4868  4732  4731    1
  4869  3496  3495    1
  4870  7572  7574    1
  4871  2394  2395    1
  4872  4359  4360    1
  4873  4359  4361    1
  4874  7838  7836    1
  4875  7659  7661    1
  4876  3777  3778    1
  4877  5932  5931    1
  4878  4417  4416    1
  4879  5477  5475    1
  4880  5975  5973    1
  4881  6983  6981    1
  4882  4319  4317    1
  4883  5321  5319    1
  4884  2657  2655    1
  4885  4416  4418    1
  4886  5863  5862    1
  4887  4331  4329    1
  4888  2141  2139    1
  4889  2130  2132    1
  4890  2157  2158    1
  4891  2157  2159    1
  4892  4164  4165    1
  4893  6267  6269    1
  4894  7836  7837    1
  4895  2857  2856    1
  4896  4259  4257    1
  4897  7256  7254    1
  4898  5311  5310    1
  4899  5654  5652    1
  4900  4440  4441    1
  4901  4440  4442    1
  4902  3185  3183    1
  4903  5050  5049    1
  4904  5103  5104    1
  4905  8077  8076    1
  4906  5247  5249    1
  4907  4845  4847    1
  4908  7230  7231    1
  4909  7230  7232    1
  4910  4431  4432    1
  4911  4515  4516    1
  4912  2656  2655    1
  4913  7509  7510    1
  4914  7509  7511    1
  4915  2464  2463    1
  4916  7226  7224    1
  4917  2425  2424    1
  4918  6013  6012    1
  4919  2971  2970    1
  4920  4257  4258    1
  4921  6313  6312    1
  4922  2856  2858    1
  4923  7522  7521    1
  4924  6899  6897    1
  4925  5044  5043    1
  4926  3183  3184    1
  4927  7523  7521    1
  4928  3495  3497    1
  4929  6982  6981    1
  4930  4853  4851    1
  4931  4098  4099    1
  4932  5862  5864    1
  4933  5310  5312    1
  4934  4896  4898    1
  4935  4896  4897    1
  4936  4951  4950    1
  4937  8060  8058    1
  4938  3768  3770    1
  4939  3768  3769    1
  4940  5931  5933    1
  4941  2874  2875    1
  4942  2874  2876    1
  4943  7224  7225    1
  4944  4852  4851    1
  4945  5973  5974    1
  4946  6314  6312    1
  4947  3862  3861    1
  4948  7254  7255    1
  4949  7279  7278    1
  4950  6613  6612    1
  4951  2139  2140    1
  4952  3830  3828    1
  4953  6012  6014    1
  4954  4329  4330    1
  4955  5319  5320    1
  4956  4952  4950    1
  4957  7048  7047    1
  4958  3640  3639    1
  4959  4317  4318    1
  4960  6897  6898    1
  4961  6644  6642    1
  4962  7047  7049    1
  4963  7447  7446    1
  4964  3539  3537    1
  4965  7315  7314    1
  4966  2510  2508    1
  4967  2970  2972    1
  4968  3861  3863    1
  4969  5875  5874    1
  4970  5479  5478    1
  4971  2424  2426    1
  4972  5233  5232    1
  4973  5652  5653    1
  4974  5905  5904    1
  4975  3537  3538    1
  4976  8076  8078    1
  4977  6506  6504    1
  4978  7982  7980    1
  4979  2744  2742    1
  4980  4282  4281    1
  4981  6612  6614    1
  4982  7278  7280    1
  4983  4070  4068    1
  4984  7328  7326    1
  4985  7448  7446    1
  4986  3482  3480    1
  4987  3828  3829    1
  4988  5049  5051    1
  4989  5478  5480    1
  4990  4274  4272    1
  4991  4430  4428    1
  4992  5045  5043    1
  4993  5093  5091    1
  4994  5586  5587    1
  4995  5586  5588    1
  4996  7296  7297    1
  4997  7296  7298    1
  4998  5873  5871    1
  4999  6110  6108    1
  5000  8058  8059    1
  5001  3639  3641    1
  5002  2463  2465    1
  5003  5972  5970    1
  5004  7077  7079    1
  5005  7077  7078    1
  5006  5904  5906    1
  5007  5232  5234    1
  5008  5467  5466    1
  5009  2287  2286    1
  5010  6850  6849    1
  5011  6109  6108    1
  5012  3220  3219    1
  5013  4463  4461    1
  5014  4273  4272    1
  5015  3121  3120    1
  5016  3466  3465    1
  5017  3481  3480    1
  5018  7314  7316    1
  5019  2468  2466    1
  5020  7729  7728    1
  5021  2284  2283    1
  5022  3110  3108    1
  5023  4074  4075    1
  5024  4074  4076    1
  5025  7648  7647    1
  5026  3219  3221    1
  5027  5758  5757    1
  5028  5828  5826    1
  5029  2742  2743    1
  5030  5683  5682    1
  5031  6642  6643    1
  5032  4428  4429    1
  5033  5092  5091    1
  5034  5826  5827    1
  5035  5288  5286    1
  5036  4281  4283    1
  5037  2508  2509    1
  5038  3720  3721    1
  5039  3720  3722    1
  5040  7326  7327    1
  5041  7728  7730    1
  5042  3629  3627    1
  5043  6849  6851    1
  5044  5874  5876    1
  5045  2286  2288    1
  5046  4002  4003    1
  5047  4002  4004    1
  5048  4040  4038    1
  5049  7136  7134    1
  5050  4068  4069    1
  5051  7980  7981    1
  5052  4388  4386    1
  5053  3848  3846    1
  5054  2153  2151    1
  5055  7458  7459    1
  5056  7458  7460    1
  5057  6504  6505    1
  5058  3860  3858    1
  5059  7397  7395    1
  5060  2283  2285    1
  5061  6934  6933    1
  5062  2467  2466    1
  5063  5757  5759    1
  5064  5371  5370    1
  5065  5062  5061    1
  5066  3120  3122    1
  5067  2722  2721    1
  5068  5004  5006    1
  5069  5004  5005    1
  5070  3109  3108    1
  5071  4461  4462    1
  5072  5125  5124    1
  5073  7169  7167    1
  5074  3465  3467    1
  5075  5682  5684    1
  5076  5871  5872    1
  5077  7541  7539    1
  5078  2387  2385    1
  5079  5286  5287    1
  5080  7031  7029    1
  5081  5046  5047    1
  5082  5046  5048    1
  5083  4335  4336    1
  5084  4335  4337    1
  5085  5466  5468    1
  5086  5970  5971    1
  5087  5606  5604    1
  5088  4945  4944    1
  5089  5063  5061    1
  5090  6913  6912    1
  5091  6933  6935    1
  5092  6779  6777    1
  5093  2834  2832    1
  5094  6778  6777    1
  5095  6986  6984    1
  5096  2974  2973    1
  5097  5124  5126    1
  5098  4380  4381    1
  5099  4380  4382    1
  5100  7647  7649    1
  5101  2497  2496    1
  5102  4658  4656    1
  5103  4990  4989    1
  5104  7967  7965    1
  5105  6912  6914    1
  5106  4084  4083    1
  5107  7540  7539    1
  5108  3846  3847    1
  5109  5042  5040    1
  5110  3859  3858    1
  5111  2675  2673    1
  5112  6401  6399    1
  5113  4991  4989    1
  5114  2107  2108    1
  5115  7656  7658    1
  5116  7656  7657    1
  5117  2111  2108    1
  5118  5354  5352    1
  5119  7134  7135    1
  5120  2604  2605    1
  5121  2604  2606    1
  5122  3205  3204    1
  5123  7396  7395    1
  5124  2880  2881    1
  5125  2880  2882    1
  5126  7471  7470    1
  5127  5098  5097    1
  5128  4386  4387    1
  5129  4038  4039    1
  5130  2973  2975    1
  5131  3627  3628    1
  5132  5020  5019    1
  5133  6059  6057    1
  5134  2110  2108    1
  5135  6361  6360    1
  5136  3449  3447    1
  5137  7921  7920    1
  5138  2983  2982    1
  5139  5624  5622    1
  5140  5041  5040    1
  5141  2912  2910    1
  5142  7966  7965    1
  5143  2496  2498    1
  5144  2563  2562    1
  5145  2151  2152    1
  5146  5370  5372    1
  5147  6787  6786    1
  5148  4083  4085    1
  5149  7470  7472    1
  5150  2171  2169    1
  5151  7498  7497    1
  5152  2108  2109    1
  5153  5353  5352    1
  5154  6399  6400    1
  5155  5521  5520    1
  5156  6226  6225    1
  5157  2721  2723    1
  5158  7592  7590    1
  5159  7499  7497    1
  5160  6093  6095    1
  5161  6093  6094    1
  5162  6984  6985    1
  5163  3827  3825    1
  5164  7405  7404    1
  5165  4656  4657    1
  5166  7167  7168    1
  5167  7487  7485    1
  5168  4944  4946    1
  5169  7920  7922    1
  5170  2673  2674    1
  5171  5021  5019    1
  5172  7283  7281    1
  5173  2385  2386    1
  5174  2832  2833    1
  5175  7029  7030    1
  5176  2982  2984    1
  5177  5345  5343    1
  5178  7912  7911    1
  5179  7050  7052    1
  5180  7050  7051    1
  5181  5604  5605    1
  5182  6227  6225    1
  5183  5520  5522    1
  5184  7718  7716    1
  5185  3454  3453    1
  5186  7829  7827    1
  5187  6734  6732    1
  5188  2911  2910    1
  5189  2562  2564    1
  5190  3448  3447    1
  5191  3332  3330    1
  5192  2730  2731    1
  5193  2730  2732    1
  5194  7825  7824    1
  5195  6141  6143    1
  5196  6141  6142    1
  5197  4082  4080    1
  5198  2249  2247    1
  5199  5435  5433    1
  5200  7771  7770    1
  5201  3204  3206    1
  5202  6273  6274    1
  5203  6273  6275    1
  5204  7329  7331    1
  5205  7329  7330    1
  5206  7404  7406    1
  5207  6360  6362    1
  5208  5097  5099    1
  5209  5622  5623    1
  5210  6920  6918    1
  5211  2169  2170    1
  5212  4973  4971    1
  5213  6057  6058    1
  5214  4000  3999    1
  5215  4684  4683    1
  5216  5561  5559    1
  5217  5055  5057    1
  5218  5055  5056    1
  5219  3306  3308    1
  5220  3306  3307    1
  5221  2524  2523    1
  5222  6786  6788    1
  5223  7191  7192    1
  5224  7191  7193    1
  5225  5343  5344    1
  5226  7911  7913    1
  5227  6438  6439    1
  5228  6438  6440    1
  5229  6420  6421    1
  5230  6420  6422    1
  5231  7590  7591    1
  5232  5428  5427    1
  5233  3453  3455    1
  5234  4738  4737    1
  5235  3825  3826    1
  5236  3947  3945    1
  5237  7603  7602    1
  5238  5902  5901    1
  5239  2438  2436    1
  5240  4739  4737    1
  5241  4080  4081    1
  5242  3999  4001    1
  5243  4679  4677    1
  5244  7485  7486    1
  5245  5381  5379    1
  5246  5690  5688    1
  5247  4685  4683    1
  5248  3945  3946    1
  5249  5334  5335    1
  5250  5334  5336    1
  5251  6692  6690    1
  5252  7281  7282    1
  5253  7770  7772    1
  5254  3633  3635    1
  5255  3633  3634    1
  5256  6732  6733    1
  5257  4905  4906    1
  5258  4905  4907    1
  5259  4971  4972    1
  5260  6125  6123    1
  5261  3892  3891    1
  5262  2247  2248    1
  5263  2523  2525    1
  5264  5165  5163    1
  5265  3330  3331    1
  5266  3259  3258    1
  5267  7827  7828    1
  5268  5427  5429    1
  5269  5028  5030    1
  5270  5028  5029    1
  5271  2899  2898    1
  5272  5183  5181    1
  5273  2437  2436    1
  5274  7716  7717    1
  5275  3083  3081    1
  5276  2898  2900    1
  5277  4759  4758    1
  5278  6262  6261    1
  5279  7824  7826    1
  5280  5433  5434    1
  5281  6670  6669    1
  5282  5384  5382    1
  5283  6918  6919    1
  5284  7377  7378    1
  5285  7377  7379    1
  5286  5444  5442    1
  5287  5245  5244    1
  5288  5901  5903    1
  5289  5559  5560    1
  5290  3461  3459    1
  5291  4627  4626    1
  5292  6196  6195    1
  5293  6797  6795    1
  5294  4313  4311    1
  5295  2406  2407    1
  5296  2406  2408    1
  5297  5446  5445    1
  5298  5150  5148    1
  5299  2759  2757    1
  5300  2258  2256    1
  5301  4124  4122    1
  5302  6434  6432    1
  5303  5164  5163    1
  5304  4532  4530    1
  5305  3460  3459    1
  5306  2323  2322    1
  5307  3193  3192    1
  5308  6261  6263    1
  5309  6380  6378    1
  5310  2894  2892    1
  5311  3544  3543    1
  5312  2941  2940    1
  5313  6795  6796    1
  5314  5637  5639    1
  5315  5637  5638    1
  5316  5148  5149    1
  5317  3687  3688    1
  5318  3687  3689    1
  5319  4677  4678    1
  5320  3899  3897    1
  5321  4022  4020    1
  5322  4122  4123    1
  5323  5944  5943    1
  5324  6701  6699    1
  5325  4758  4760    1
  5326  6195  6197    1
  5327  3891  3893    1
  5328  5689  5688    1
  5329  2891  2889    1
  5330  7602  7604    1
  5331  2609  2607    1
  5332  2940  2942    1
  5333  3543  3545    1
  5334  5181  5182    1
  5335  4626  4628    1
  5336  3258  3260    1
  5337  4311  4312    1
  5338  2861  2859    1
  5339  2501  2499    1
  5340  6123  6124    1
  5341  5445  5447    1
  5342  5379  5380    1
  5343  3484  3483    1
  5344  7184  7182    1
  5345  4457  4455    1
  5346  3043  3042    1
  5347  6378  6379    1
  5348  5244  5246    1
  5349  2565  2567    1
  5350  2565  2566    1
  5351  2757  2758    1
  5352  3683  3681    1
  5353  5459  5457    1
  5354  6690  6691    1
  5355  3421  3420    1
  5356  6669  6671    1
  5357  2516  2514    1
  5358  3192  3194    1
  5359  2859  2860    1
  5360  2342  2340    1
  5361  3289  3288    1
  5362  6791  6789    1
  5363  3044  3042    1
  5364  2138  2136    1
  5365  3081  3082    1
  5366  2322  2324    1
  5367  6016  6015    1
  5368  5943  5945    1
  5369  6015  6017    1
  5370  5382  5383    1
  5371  5442  5443    1
  5372  6628  6627    1
  5373  4456  4455    1
  5374  3681  3682    1
  5375  6432  6433    1
  5376  6799  6798    1
  5377  4139  4137    1
  5378  2375  2373    1
  5379  2892  2893    1
  5380  2256  2257    1
  5381  4530  4531    1
  5382  6254  6252    1
  5383  3288  3290    1
  5384  5674  5673    1
  5385  6601  6600    1
  5386  6790  6789    1
  5387  4137  4138    1
  5388  6739  6738    1
  5389  2889  2890    1
  5390  3872  3870    1
  5391  4220  4218    1
  5392  3898  3897    1
  5393  4560  4562    1
  5394  4560  4561    1
  5395  3483  3485    1
  5396  3170  3168    1
  5397  6699  6700    1
  5398  4020  4021    1
  5399  6627  6629    1
  5400  3528  3529    1
  5401  3528  3530    1
  5402  3420  3422    1
  5403  4130  4128    1
  5404  3580  3579    1
  5405  5457  5458    1
  5406  2416  2415    1
  5407  5464  5463    1
  5408  6215  6213    1
  5409  5053  5052    1
  5410  4427  4425    1
  5411  7736  7734    1
  5412  2607  2608    1
  5413  3581  3579    1
  5414  2499  2500    1
  5415  6424  6423    1
  5416  4504  4503    1
  5417  2136  2137    1
  5418  3724  3723    1
  5419  7182  7183    1
  5420  5673  5675    1
  5421  4701  4702    1
  5422  4701  4703    1
  5423  5954  5952    1
  5424  3723  3725    1
  5425  7149  7150    1
  5426  7149  7151    1
  5427  6600  6602    1
  5428  6738  6740    1
  5429  8029  8028    1
  5430  2514  2515    1
  5431  5052  5054    1
  5432  6214  6213    1
  5433  4537  4536    1
  5434  2415  2417    1
  5435  5524  5523    1
  5436  6088  6087    1
  5437  6580  6579    1
  5438  4536  4538    1
  5439  2340  2341    1
  5440  4390  4389    1
  5441  5881  5880    1
  5442  5523  5525    1
  5443  4888  4887    1
  5444  6973  6972    1
  5445  6798  6800    1
  5446  5463  5465    1
  5447  8030  8028    1
  5448  3800  3798    1
  5449  5628  5629    1
  5450  5628  5630    1
  5451  4140  4142    1
  5452  4140  4141    1
  5453  2373  2374    1
  5454  5952  5953    1
  5455  2540  2538    1
  5456  5880  5882    1
  5457  4505  4503    1
  5458  4612  4611    1
  5459  4037  4035    1
  5460  6977  6975    1
  5461  5546  5544    1
  5462  3587  3585    1
  5463  5075  5073    1
  5464  3733  3732    1
  5465  7216  7215    1
  5466  7059  7061    1
  5467  7059  7060    1
  5468  6252  6253    1
  5469  2533  2532    1
  5470  5860  5859    1
  5471  3871  3870    1
  5472  6972  6974    1
  5473  5936  5934    1
  5474  2230  2229    1
  5475  4128  4129    1
  5476  4304  4302    1
  5477  5206  5205    1
  5478  6579  6581    1
  5479  4611  4613    1
  5480  4748  4746    1
  5481  4055  4053    1
  5482  4218  4219    1
  5483  6976  6975    1
  5484  3168  3169    1
  5485  4035  4036    1
  5486  4054  4053    1
  5487  3479  3477    1
  5488  5545  5544    1
  5489  7954  7953    1
  5490  6087  6089    1
  5491  4425  4426    1
  5492  4889  4887    1
  5493  2828  2826    1
  5494  4606  4605    1
  5495  2957  2955    1
  5496  5794  5793    1
  5497  2537  2535    1
  5498  5205  5207    1
  5499  7734  7735    1
  5500  6423  6425    1
  5501  4824  4826    1
  5502  4824  4825    1
  5503  2749  2748    1
  5504  4385  4383    1
  5505  4902  4903    1
  5506  4902  4904    1
  5507  5060  5058    1
  5508  4303  4302    1
  5509  4605  4607    1
  5510  5495  5493    1
  5511  2532  2534    1
  5512  7585  7584    1
  5513  5795  5793    1
  5514  2206  2205    1
  5515  4583  4581    1
  5516  3585  3586    1
  5517  7206  7207    1
  5518  7206  7208    1
  5519  4103  4101    1
  5520  7410  7411    1
  5521  7410  7412    1
  5522  2539  2538    1
  5523  4553  4551    1
  5524  5811  5812    1
  5525  5811  5813    1
  5526  3798  3799    1
  5527  4389  4391    1
  5528  2114  2112    1
  5529  7795  7794    1
  5530  3865  3864    1
  5531  2659  2658    1
  5532  6761  6759    1
  5533  5497  5496    1
  5534  5197  5196    1
  5535  6523  6522    1
  5536  6026  6024    1
  5537  5998  5997    1
  5538  5859  5861    1
  5539  4785  4786    1
  5540  4785  4787    1
  5541  5073  5074    1
  5542  4747  4746    1
  5543  6237  6238    1
  5544  6237  6239    1
  5545  3883  3882    1
  5546  7742  7740    1
  5547  2956  2955    1
  5548  2224  2223    1
  5549  7953  7955    1
  5550  2305  2304    1
  5551  4262  4260    1
  5552  7215  7217    1
  5553  2350  2349    1
  5554  3732  3734    1
  5555  7586  7584    1
  5556  4383  4384    1
  5557  3477  3478    1
  5558  5378  5376    1
  5559  5750  5748    1
  5560  5196  5198    1
  5561  4228  4227    1
  5562  5934  5935    1
  5563  5748  5749    1
  5564  3882  3884    1
  5565  2229  2231    1
  5566  2748  2750    1
  5567  4260  4261    1
  5568  3806  3804    1
  5569  7885  7884    1
  5570  2268  2270    1
  5571  2268  2269    1
  5572  5376  5377    1
  5573  5059  5058    1
  5574  3394  3393    1
  5575  3864  3866    1
  5576  2328  2329    1
  5577  2328  2330    1
  5578  4582  4581    1
  5579  3964  3963    1
  5580  4770  4772    1
  5581  4770  4771    1
  5582  2207  2205    1
  5583  7794  7796    1
  5584  5496  5498    1
  5585  2535  2536    1
  5586  6522  6524    1
  5587  7438  7437    1
  5588  2112  2113    1
  5589  5997  5999    1
  5590  7654  7653    1
  5591  4402  4401    1
  5592  2304  2306    1
  5593  5540  5538    1
  5594  2550  2551    1
  5595  2550  2552    1
  5596  6170  6168    1
  5597  2678  2676    1
  5598  7537  7536    1
  5599  2826  2827    1
  5600  4469  4467    1
  5601  6759  6760    1
  5602  7437  7439    1
  5603  5583  5584    1
  5604  5583  5585    1
  5605  7513  7512    1
  5606  4227  4229    1
  5607  6220  6219    1
  5608  3304  3303    1
  5609  2658  2660    1
  5610  5493  5494    1
  5611  7884  7886    1
  5612  4101  4102    1
  5613  4551  4552    1
  5614  7536  7538    1
  5615  7653  7655    1
  5616  5551  5550    1
  5617  6024  6025    1
  5618  4401  4403    1
  5619  8037  8039    1
  5620  8037  8038    1
  5621  2676  2677    1
  5622  2349  2351    1
  5623  7906  7905    1
  5624  7720  7719    1
  5625  3965  3963    1
  5626  2405  2403    1
  5627  6047  6045    1
  5628  3803  3801    1
  5629  2839  2838    1
  5630  4439  4437    1
  5631  5625  5627    1
  5632  5625  5626    1
  5633  7740  7741    1
  5634  6368  6366    1
  5635  7514  7512    1
  5636  4510  4509    1
  5637  6618  6619    1
  5638  6618  6620    1
  5639  2223  2225    1
  5640  6547  6546    1
  5641  5558  5556    1
  5642  7583  7581    1
  5643  7261  7260    1
  5644  4568  4566    1
  5645  7870  7869    1
  5646  7567  7566    1
  5647  3393  3395    1
  5648  3643  3642    1
  5649  7252  7251    1
  5650  3115  3114    1
  5651  4467  4468    1
  5652  6546  6548    1
  5653  3804  3805    1
  5654  7553  7551    1
  5655  7645  7644    1
  5656  5432  5430    1
  5657  6645  6647    1
  5658  6645  6646    1
  5659  7869  7871    1
  5660  6169  6168    1
  5661  7905  7907    1
  5662  6394  6393    1
  5663  3252  3253    1
  5664  3252  3254    1
  5665  7251  7253    1
  5666  5552  5550    1
  5667  6219  6221    1
  5668  6929  6927    1
  5669  4882  4881    1
  5670  7719  7721    1
  5671  6927  6928    1
  5672  5538  5539    1
  5673  2929  2928    1
  5674  6515  6513    1
  5675  7552  7551    1
  5676  5762  5760    1
  5677  4881  4883    1
  5678  3303  3305    1
  5679  6768  6770    1
  5680  6768  6769    1
  5681  5070  5072    1
  5682  5070  5071    1
  5683  4509  4511    1
  5684  3114  3116    1
  5685  4699  4698    1
  5686  3780  3782    1
  5687  3780  3781    1
  5688  7441  7440    1
  5689  3365  3363    1
  5690  3363  3364    1
  5691  7566  7568    1
  5692  3566  3564    1
  5693  6686  6684    1
  5694  2928  2930    1
  5695  5835  5836    1
  5696  5835  5837    1
  5697  4437  4438    1
  5698  7286  7284    1
  5699  5760  5761    1
  5700  4700  4698    1
  5701  7053  7055    1
  5702  7053  7054    1
  5703  7260  7262    1
  5704  5556  5557    1
  5705  7440  7442    1
  5706  5156  5154    1
  5707  6366  6367    1
  5708  3642  3644    1
  5709  6945  6946    1
  5710  6945  6947    1
  5711  3694  3693    1
  5712  7099  7098    1
  5713  2403  2404    1
  5714  4519  4518    1
  5715  2626  2625    1
  5716  2512  2511    1
  5717  5069  5067    1
  5718  3801  3802    1
  5719  7088  7086    1
  5720  2838  2840    1
  5721  3695  3693    1
  5722  2735  2733    1
  5723  6723  6724    1
  5724  6723  6725    1
  5725  6045  6046    1
  5726  2625  2627    1
  5727  4566  4567    1
  5728  7644  7646    1
  5729  6917  6915    1
  5730  4535  4533    1
  5731  7581  7582    1
  5732  4286  4284    1
  5733  7098  7100    1
  5734  3413  3411    1
  5735  5723  5721    1
  5736  7307  7305    1
  5737  6571  6570    1
  5738  2251  2250    1
  5739  6393  6395    1
  5740  4058  4056    1
  5741  6510  6512    1
  5742  6510  6511    1
  5743  5878  5877    1
  5744  3157  3156    1
  5745  4193  4191    1
  5746  6685  6684    1
  5747  8026  8025    1
  5748  5430  5431    1
  5749  7071  7072    1
  5750  7071  7073    1
  5751  3104  3102    1
  5752  3103  3102    1
  5753  5841  5842    1
  5754  5841  5843    1
  5755  7305  7306    1
  5756  4661  4659    1
  5757  4840  4839    1
  5758  7004  7002    1
  5759  7445  7443    1
  5760  3371  3369    1
  5761  7964  7962    1
  5762  3319  3318    1
  5763  6513  6514    1
  5764  5154  5155    1
  5765  3156  3158    1
  5766  3569  3567    1
  5767  6276  6277    1
  5768  6276  6278    1
  5769  7979  7977    1
  5770  4549  4548    1
  5771  5066  5064    1
  5772  3564  3565    1
  5773  5825  5823    1
  5774  4287  4288    1
  5775  4287  4289    1
  5776  3775  3774    1
  5777  7978  7977    1
  5778  2281  2280    1
  5779  7284  7285    1
  5780  7422  7424    1
  5781  7422  7423    1
  5782  4073  4071    1
  5783  2808  2809    1
  5784  2808  2810    1
  5785  4056  4057    1
  5786  3369  3370    1
  5787  2733  2734    1
  5788  5692  5691    1
  5789  4533  4534    1
  5790  2280  2282    1
  5791  7636  7635    1
  5792  5067  5068    1
  5793  7507  7506    1
  5794  6570  6572    1
  5795  2511  2513    1
  5796  4518  4520    1
  5797  5721  5722    1
  5798  4328  4326    1
  5799  7002  7003    1
  5800  5404  5403    1
  5801  3818  3816    1
  5802  8025  8027    1
  5803  6436  6435    1
  5804  7086  7087    1
  5805  4284  4285    1
  5806  5877  5879    1
  5807  6166  6165    1
  5808  4597  4596    1
  5809  3412  3411    1
  5810  4548  4550    1
  5811  3047  3045    1
  5812  3515  3513    1
  5813  4841  4839    1
  5814  4988  4986    1
  5815  6021  6023    1
  5816  6021  6022    1
  5817  6915  6916    1
  5818  2885  2883    1
  5819  7963  7962    1
  5820  5403  5405    1
  5821  7443  7444    1
  5822  4978  4977    1
  5823  6979  6978    1
  5824  2250  2252    1
  5825  4659  4660    1
  5826  3914  3912    1
  5827  7418  7416    1
  5828  5645  5643    1
  5829  4757  4755    1
  5830  3513  3514    1
  5831  6891  6893    1
  5832  6891  6892    1
  5833  7506  7508    1
  5834  6881  6879    1
  5835  7635  7637    1
  5836  4191  4192    1
  5837  2737  2736    1
  5838  2167  2166    1
  5839  5824  5823    1
  5840  4476  4477    1
  5841  4476  4478    1
  5842  3728  3726    1
  5843  7416  7417    1
  5844  2234  2232    1
  5845  6435  6437    1
  5846  4268  4266    1
  5847  5691  5693    1
  5848  4216  4215    1
  5849  4598  4596    1
  5850  2719  2718    1
  5851  5939  5937    1
  5852  2232  2233    1
  5853  3318  3320    1
  5854  8019  8021    1
  5855  8019  8020    1
  5856  3567  3568    1
  5857  4484  4482    1
  5858  6650  6648    1
  5859  3774  3776    1
  5860  4327  4326    1
  5861  4755  4756    1
  5862  4071  4072    1
  5863  6978  6980    1
  5864  4215  4217    1
  5865  3408  3409    1
  5866  3408  3410    1
  5867  6327  6329    1
  5868  6327  6328    1
  5869  2770  2769    1
  5870  6880  6879    1
  5871  6902  6900    1
  5872  5064  5065    1
  5873  2769  2771    1
  5874  2166  2168    1
  5875  5282  5280    1
  5876  3816  3817    1
  5877  3992  3990    1
  5878  5112  5113    1
  5879  5112  5114    1
  5880  3045  3046    1
  5881  3667  3666    1
  5882  4151  4149    1
  5883  3215  3213    1
  5884  6165  6167    1
  5885  6063  6064    1
  5886  6063  6065    1
  5887  3148  3147    1
  5888  3697  3696    1
  5889  3213  3214    1
  5890  4977  4979    1
  5891  2883  2884    1
  5892  5081  5079    1
  5893  4936  4935    1
  5894  4482  4483    1
  5895  2736  2738    1
  5896  5264  5262    1
  5897  8044  8043    1
  5898  5643  5644    1
  5899  3990  3991    1
  5900  3666  3668    1
  5901  7843  7842    1
  5902  7925  7923    1
  5903  7082  7080    1
  5904  3147  3149    1
  5905  4986  4987    1
  5906  2927  2925    1
  5907  3418  3417    1
  5908  5024  5022    1
  5909  4935  4937    1
  5910  3912  3913    1
  5911  5272  5271    1
  5912  3457  3456    1
  5913  3726  3727    1
  5914  5079  5080    1
  5915  6295  6294    1
  5916  4149  4150    1
  5917  7924  7923    1
  5918  3293  3291    1
  5919  2849  2847    1
  5920  6731  6729    1
  5921  6729  6730    1
  5922  4796  4794    1
  5923  2926  2925    1
  5924  3005  3003    1
  5925  3458  3456    1
  5926  5440  5439    1
  5927  3048  3049    1
  5928  3048  3050    1
  5929  6080  6078    1
  5930  5959  5958    1
  5931  3419  3417    1
  5932  2718  2720    1
  5933  8045  8043    1
  5934  3809  3807    1
  5935  4801  4800    1
  5936  4266  4267    1
  5937  6948  6949    1
  5938  6948  6950    1
  5939  5937  5938    1
  5940  4795  4794    1
  5941  7376  7374    1
  5942  4458  4459    1
  5943  4458  4460    1
  5944  2261  2259    1
  5945  6648  6649    1
  5946  2531  2529    1
  5947  5262  5263    1
  5948  5280  5281    1
  5949  7842  7844    1
  5950  6900  6901    1
  5951  3807  3808    1
  5952  7823  7821    1
  5953  5958  5960    1
  5954  5395  5394    1
  5955  6442  6441    1
  5956  6078  6079    1
  5957  3750  3751    1
  5958  3750  3752    1
  5959  5387  5385    1
  5960  3160  3159    1
  5961  7074  7076    1
  5962  7074  7075    1
  5963  5329  5328    1
  5964  5817  5819    1
  5965  5817  5818    1
  5966  2643  2644    1
  5967  2643  2645    1
  5968  6294  6296    1
  5969  5009  5007    1
  5970  6441  6443    1
  5971  3452  3450    1
  5972  6430  6429    1
  5973  5439  5441    1
  5974  3696  3698    1
  5975  5008  5007    1
  5976  4866  4867    1
  5977  4866  4868    1
  5978  5273  5271    1
  5979  3062  3060    1
  5980  4800  4802    1
  5981  3291  3292    1
  5982  3325  3324    1
  5983  6598  6597    1
  5984  4349  4347    1
  5985  5786  5784    1
  5986  5991  5992    1
  5987  5991  5993    1
  5988  3016  3015    1
  5989  5575  5574    1
  5990  8064  8066    1
  5991  8064  8065    1
  5992  4234  4233    1
  5993  3685  3684    1
  5994  3382  3381    1
  5995  3004  3003    1
  5996  6678  6679    1
  5997  6678  6680    1
  5998  7080  7081    1
  5999  5328  5330    1
  6000  5022  5023    1
  6001  4933  4932    1
  6002  3324  3326    1
  6003  6153  6154    1
  6004  6153  6155    1
  6005  4444  4443    1
  6006  6429  6431    1
  6007  2684  2682    1
  6008  6257  6255    1
  6009  5579  5577    1
  6010  3161  3159    1
  6011  2701  2700    1
  6012  6958  6957    1
  6013  7888  7887    1
  6014  3143  3141    1
  6015  2847  2848    1
  6016  2915  2913    1
  6017  7710  7712    1
  6018  7710  7711    1
  6019  4932  4934    1
  6020  2259  2260    1
  6021  4843  4842    1
  6022  7374  7375    1
  6023  2201  2199    1
  6024  2529  2530    1
  6025  7887  7889    1
  6026  5850  5851    1
  6027  5850  5852    1
  6028  5784  5785    1
  6029  3684  3686    1
  6030  5138  5136    1
  6031  3381  3383    1
  6032  5642  5640    1
  6033  6301  6300    1
  6034  6597  6599    1
  6035  5927  5925    1
  6036  3704  3702    1
  6037  6208  6207    1
  6038  3450  3451    1
  6039  5394  5396    1
  6040  7821  7822    1
  6041  3020  3018    1
  6042  6053  6051    1
  6043  2462  2460    1
  6044  5926  5925    1
  6045  3015  3017    1
  6046  4650  4652    1
  6047  4650  4651    1
  6048  6658  6657    1
  6049  3519  3521    1
  6050  3519  3520    1
  6051  5385  5386    1
  6052  3060  3061    1
  6053  4443  4445    1
  6054  2682  2683    1
  6055  5503  5502    1
  6056  6757  6756    1
  6057  2431  2430    1
  6058  5977  5976    1
  6059  5738  5736    1
  6060  3134  3132    1
  6061  5502  5504    1
  6062  4347  4348    1
  6063  7663  7662    1
  6064  2483  2481    1
  6065  2846  2844    1
  6066  5577  5578    1
  6067  5574  5576    1
  6068  5368  5367    1
  6069  4636  4635    1
  6070  6409  6408    1
  6071  6137  6135    1
  6072  7662  7664    1
  6073  3877  3876    1
  6074  5736  5737    1
  6075  4233  4235    1
  6076  6256  6255    1
  6077  6300  6302    1
  6078  6957  6959    1
  6079  6207  6209    1
  6080  5917  5916    1
  6081  6667  6666    1
  6082  4593  4594    1
  6083  4593  4595    1
  6084  4706  4704    1
  6085  2700  2702    1
  6086  7174  7173    1
  6087  7619  7617    1
  6088  2163  2164    1
  6089  2163  2165    1
  6090  5590  5589    1
  6091  7244  7242    1
  6092  6556  6555    1
  6093  4174  4173    1
  6094  3141  3142    1
  6095  4820  4818    1
  6096  2913  2914    1
  6097  5365  5364    1
  6098  5367  5369    1
  6099  6756  6758    1
  6100  4584  4585    1
  6101  4584  4586    1
  6102  6135  6136    1
  6103  5166  5167    1
  6104  5166  5168    1
  6105  5366  5364    1
  6106  7414  7413    1
  6107  4842  4844    1
  6108  6408  6410    1
  6109  6659  6657    1
  6110  5136  5137    1
  6111  7415  7413    1
  6112  6666  6668    1
  6113  3018  3019    1
  6114  2199  2200    1
  6115  3199  3198    1
  6116  3208  3207    1
  6117  5314  5313    1
  6118  7769  7767    1
  6119  5916  5918    1
  6120  6051  6052    1
  6121  7520  7518    1
  6122  5640  5641    1
  6123  5601  5603    1
  6124  5601  5602    1
  6125  4450  4449    1
  6126  5976  5978    1
  6127  6244  6243    1
  6128  2460  2461    1
  6129  4411  4410    1
  6130  3876  3878    1
  6131  3702  3703    1
  6132  4173  4175    1
  6133  3842  3840    1
  6134  2149  2148    1
  6135  3559  3558    1
  6136  3023  3021    1
  6137  2570  2568    1
  6138  3841  3840    1
  6139  3823  3822    1
  6140  4704  4705    1
  6141  7242  7243    1
  6142  2430  2432    1
  6143  2481  2482    1
  6144  4410  4412    1
  6145  4263  4264    1
  6146  4263  4265    1
  6147  5313  5315    1
  6148  3209  3207    1
  6149  5076  5077    1
  6150  5076  5078    1
  6151  3822  3824    1
  6152  7891  7890    1
  6153  7726  7725    1
  6154  6555  6557    1
  6155  3622  3621    1
  6156  2381  2379    1
  6157  4649  4647    1
  6158  4451  4449    1
  6159  7173  7175    1
  6160  5095  5094    1
  6161  3118  3117    1
  6162  2844  2845    1
  6163  4635  4637    1
  6164  3132  3133    1
  6165  2453  2451    1
  6166  7171  7170    1
  6167  3117  3119    1
  6168  3558  3560    1
  6169  2854  2853    1
  6170  4333  4332    1
  6171  8054  8052    1
  6172  3673  3672    1
  6173  3127  3126    1
  6174  7617  7618    1
  6175  4601  4599    1
  6176  3140  3138    1
  6177  4115  4113    1
  6178  5655  5656    1
  6179  5655  5657    1
  6180  5699  5697    1
  6181  7767  7768    1
  6182  3716  3714    1
  6183  2687  2685    1
  6184  3068  3066    1
  6185  5589  5591    1
  6186  6099  6100    1
  6187  6099  6101    1
  6188  2569  2568    1
  6189  4600  4599    1
  6190  4818  4819    1
  6191  3198  3200    1
  6192  3714  3715    1
  6193  6019  6018    1
  6194  3021  3022    1
  6195  4131  4133    1
  6196  4131  4132    1
  6197  4647  4648    1
  6198  3128  3126    1
  6199  7170  7172    1
  6200  7725  7727    1
  6201  6174  6175    1
  6202  6174  6176    1
  6203  5593  5592    1
  6204  7518  7519    1
  6205  7808  7806    1
  6206  5236  5235    1
  6207  5614  5613    1
  6208  6243  6245    1
  6209  7362  7364    1
  6210  7362  7363    1
  6211  2369  2367    1
  6212  6352  6351    1
  6213  3672  3674    1
  6214  3712  3711    1
  6215  3211  3210    1
  6216  7890  7892    1
  6217  2960  2958    1
  6218  5900  5898    1
  6219  2393  2391    1
  6220  2148  2150    1
  6221  2853  2855    1
  6222  2367  2368    1
  6223  5216  5214    1
  6224  6482  6480    1
  6225  2697  2699    1
  6226  2697  2698    1
  6227  6416  6414    1
  6228  2379  2380    1
  6229  5094  5096    1
  6230  5159  5157    1
  6231  4569  4571    1
  6232  4569  4570    1
  6233  3621  3623    1
  6234  8052  8053    1
  6235  2451  2452    1
  6236  4113  4114    1
  6237  3010  3009    1
  6238  7999  7998    1
  6239  5899  5898    1
  6240  4183  4182    1
  6241  5235  5237    1
  6242  5941  5940    1
  6243  5914  5913    1
  6244  6056  6054    1
  6245  3067  3066    1
  6246  2650  2649    1
  6247  2685  2686    1
  6248  3711  3713    1
  6249  4910  4908    1
  6250  5940  5942    1
  6251  6351  6353    1
  6252  5613  5615    1
  6253  4332  4334    1
  6254  6449  6447    1
  6255  3138  3139    1
  6256  6688  6687    1
  6257  3210  3212    1
  6258  5592  5594    1
  6259  5697  5698    1
  6260  7671  7673    1
  6261  7671  7672    1
  6262  6500  6498    1
  6263  6498  6499    1
  6264  6481  6480    1
  6265  6018  6020    1
  6266  5214  5215    1
  6267  7998  8000    1
  6268  4492  4491    1
  6269  6447  6448    1
  6270  4556  4554    1
  6271  6355  6354    1
  6272  6687  6689    1
  6273  7806  7807    1
  6274  6326  6324    1
  6275  7026  7028    1
  6276  7026  7027    1
  6277  5416  5415    1
  6278  6192  6194    1
  6279  6192  6193    1
  6280  3428  3426    1
  6281  6702  6703    1
  6282  6702  6704    1
  6283  3009  3011    1
  6284  2794  2793    1
  6285  6908  6906    1
  6286  2651  2649    1
  6287  4525  4524    1
  6288  5417  5415    1
  6289  2713  2712    1
  6290  4554  4555    1
  6291  3994  3993    1
  6292  5951  5949    1
  6293  2896  2895    1
  6294  5724  5725    1
  6295  5724  5726    1
  6296  4204  4203    1
  6297  6632  6630    1
  6298  5949  5950    1
  6299  6054  6055    1
  6300  2391  2392    1
  6301  6713  6711    1
  6302  2958  2959    1
  6303  6479  6477    1
  6304  3167  3165    1
  6305  5157  5158    1
  6306  6414  6415    1
  6307  7909  7908    1
  6308  6354  6356    1
  6309  3425  3423    1
  6310  4524  4526    1
  6311  6907  6906    1
  6312  2897  2895    1
  6313  7102  7101    1
  6314  5913  5915    1
  6315  3561  3563    1
  6316  3561  3562    1
  6317  4491  4493    1
  6318  4908  4909    1
  6319  4185  4187    1
  6320  4185  4186    1
  6321  4182  4184    1
  6322  3977  3975    1
  6323  4775  4773    1
  6324  4203  4205    1
  6325  6029  6027    1
  6326  3166  3165    1
  6327  2505  2506    1
  6328  2505  2507    1
  6329  3993  3995    1
  6330  4507  4506    1
  6331  6502  6501    1
  6332  3404  3402    1
  6333  5801  5799    1
  6334  7103  7101    1
  6335  6631  6630    1
  6336  6076  6075    1
  6337  4674  4676    1
  6338  4674  4675    1
  6339  3402  3403    1
  6340  6712  6711    1
  6341  2704  2703    1
  6342  6075  6077    1
  6343  7908  7910    1
  6344  5847  5849    1
  6345  5847  5848    1
  6346  3317  3315    1
  6347  3055  3054    1
  6348  7932  7934    1
  6349  7932  7933    1
  6350  6478  6477    1
  6351  7530  7532    1
  6352  7530  7531    1
  6353  4776  4778    1
  6354  4776  4777    1
  6355  2712  2714    1
  6356  6971  6969    1
  6357  2587  2586    1
  6358  7022  7020    1
  6359  2352  2354    1
  6360  2352  2353    1
  6361  4490  4488    1
  6362  6969  6970    1
  6363  6324  6325    1
  6364  3739  3738    1
  6365  3054  3056    1
  6366  2793  2795    1
  6367  5275  5274    1
  6368  3975  3976    1
  6369  7517  7515    1
  6370  3656  3654    1
  6371  7744  7743    1
  6372  3654  3655    1
  6373  3426  3427    1
  6374  5984  5982    1
  6375  2254  2253    1
  6376  6473  6471    1
  6377  7577  7575    1
  6378  6501  6503    1
  6379  6201  6202    1
  6380  6201  6203    1
  6381  4506  4508    1
  6382  3091  3090    1
  6383  7928  7926    1
  6384  5983  5982    1
  6385  7976  7974    1
  6386  3738  3740    1
  6387  6829  6828    1
  6388  4792  4791    1
  6389  4618  4617    1
  6390  3362  3360    1
  6391  2253  2255    1
  6392  5783  5781    1
  6393  2935  2934    1
  6394  5274  5276    1
  6395  3904  3903    1
  6396  4949  4947    1
  6397  2934  2936    1
  6398  3423  3424    1
  6399  7112  7110    1
  6400  2792  2790    1
  6401  6027  6028    1
  6402  4773  4774    1
  6403  3665  3663    1
  6404  2348  2346    1
  6405  3488  3486    1
  6406  7111  7110    1
  6407  7021  7020    1
  6408  6830  6828    1
  6409  5894  5892    1
  6410  3029  3027    1
  6411  3978  3980    1
  6412  3978  3979    1
  6413  7926  7927    1
  6414  2703  2705    1
  6415  6471  6472    1
  6416  2586  2588    1
  6417  3903  3905    1
  6418  3360  3361    1
  6419  4947  4948    1
  6420  5799  5800    1
  6421  5084  5082    1
  6422  7952  7950    1
  6423  3315  3316    1
  6424  2480  2478    1
  6425  4033  4032    1
  6426  4617  4619    1
  6427  4488  4489    1
  6428  4793  4791    1
  6429  5257  5256    1
  6430  2161  2160    1
  6431  7515  7516    1
  6432  3196  3195    1
  6433  3000  3001    1
  6434  3000  3002    1
  6435  7249  7248    1
  6436  3195  3197    1
  6437  5782  5781    1
  6438  2939  2937    1
  6439  4088  4086    1
  6440  4849  4848    1
  6441  4032  4034    1
  6442  7743  7745    1
  6443  3090  3092    1
  6444  7387  7386    1
  6445  7248  7250    1
  6446  3486  3487    1
  6447  2378  2376    1
  6448  5892  5893    1
  6449  7974  7975    1
  6450  7575  7576    1
  6451  5256  5258    1
  6452  6304  6303    1
  6453  4838  4836    1
  6454  7753  7752    1
  6455  2203  2202    1
  6456  2308  2307    1
  6457  6623  6621    1
  6458  6470  6468    1
  6459  2160  2162    1
  6460  7241  7239    1
  6461  5787  5788    1
  6462  5787  5789    1
  6463  6158  6156    1
  6464  2312  2310    1
  6465  6162  6163    1
  6466  6162  6164    1
  6467  2347  2346    1
  6468  3616  3615    1
  6469  7239  7240    1
  6470  2478  2479    1
  6471  2672  2670    1
  6472  5489  5487    1
  6473  3358  3357    1
  6474  6398  6396    1
  6475  5455  5454    1
  6476  7950  7951    1
  6477  4414  4413    1
  6478  2204  2202    1
  6479  6621  6622    1
  6480  6010  6009    1
  6481  3663  3664    1
  6482  4750  4749    1
  6483  6303  6305    1
  6484  2790  2791    1
  6485  4848  4850    1
  6486  6956  6954    1
  6487  7386  7388    1
  6488  5929  5928    1
  6489  2376  2377    1
  6490  6826  6825    1
  6491  3027  3028    1
  6492  4086  4087    1
  6493  6157  6156    1
  6494  5454  5456    1
  6495  6825  6827    1
  6496  2186  2184    1
  6497  2981  2979    1
  6498  2184  2185    1
  6499  4837  4836    1
  6500  5969  5967    1
  6501  7831  7830    1
  6502  5082  5083    1
  6503  2135  2133    1
  6504  3357  3359    1
  6505  7610  7608    1
  6506  4048  4047    1
  6507  2937  2938    1
  6508  5102  5100    1
  6509  7752  7754    1
  6510  2310  2311    1
  6511  7038  7040    1
  6512  7038  7039    1
  6513  6677  6675    1
  6514  6370  6369    1
  6515  6397  6396    1
  6516  4415  4413    1
  6517  2133  2134    1
  6518  2307  2309    1
  6519  6468  6469    1
  6520  3746  3744    1
  6521  2694  2695    1
  6522  2694  2696    1
  6523  6461  6459    1
  6524  5731  5730    1
  6525  5928  5930    1
  6526  3706  3705    1
  6527  6584  6582    1
  6528  4157  4155    1
  6529  4749  4751    1
  6530  7360  7359    1
  6531  4016  4014    1
  6532  5488  5487    1
  6533  3833  3831    1
  6534  3095  3093    1
  6535  6009  6011    1
  6536  7832  7830    1
  6537  2420  2418    1
  6538  6808  6807    1
  6539  3251  3249    1
  6540  2670  2671    1
  6541  7862  7860    1
  6542  3517  3516    1
  6543  3248  3246    1
  6544  5501  5499    1
  6545  2717  2715    1
  6546  2980  2979    1
  6547  5179  5178    1
  6548  5710  5709    1
  6549  4047  4049    1
  6550  6997  6996    1
  6551  5266  5265    1
  6552  6954  6955    1
  6553  4294  4293    1
  6554  2716  2715    1
  6555  3615  3617    1
  6556  7153  7152    1
  6557  3941  3939    1
  6558  7609  7608    1
  6559  3073  3072    1
  6560  6582  6583    1
  6561  3376  3375    1
  6562  5967  5968    1
  6563  5100  5101    1
  6564  5730  5732    1
  6565  6675  6676    1
  6566  7346  7344    1
  6567  3662  3660    1
  6568  2126  2124    1
  6569  4195  4194    1
  6570  7940  7938    1
  6571  2418  2419    1
  6572  4194  4196    1
  6573  3831  3832    1
  6574  3542  3540    1
  6575  6807  6809    1
  6576  6996  6998    1
  6577  4046  4044    1
  6578  6459  6460    1
  6579  3375  3377    1
  6580  6330  6332    1
  6581  6330  6331    1
  6582  4623  4624    1
  6583  4623  4625    1
  6584  3705  3707    1
  6585  6369  6371    1
  6586  7152  7154    1
  6587  5107  5106    1
  6588  7359  7361    1
  6589  3744  3745    1
  6590  7196  7194    1
  6591  6113  6111    1
  6592  7165  7164    1
  6593  6071  6069    1
  6594  6626  6624    1
  6595  4740  4742    1
  6596  4740  4741    1
  6597  4014  4015    1
  6598  3093  3094    1
  6599  5178  5180    1
  6600  8018  8016    1
  6601  5108  5106    1
  6602  5499  5500    1
  6603  4156  4155    1
  6604  6097  6096    1
  6605  4914  4915    1
  6606  4914  4916    1
  6607  6578  6576    1
  6608  7675  7674    1
  6609  3660  3661    1
  6610  3249  3250    1
  6611  7757  7755    1
  6612  4095  4096    1
  6613  4095  4097    1
  6614  4858  4857    1
  6615  6121  6120    1
  6616  4146  4147    1
  6617  4146  4148    1
  6618  2526  2528    1
  6619  2526  2527    1
  6620  5709  5711    1
  6621  7164  7166    1
  6622  3074  3072    1
  6623  7755  7756    1
  6624  4965  4967    1
  6625  4965  4966    1
  6626  4859  4857    1
  6627  6122  6120    1
  6628  6092  6090    1
  6629  5265  5267    1
  6630  3516  3518    1
  6631  7860  7861    1
  6632  6624  6625    1
  6633  7938  7939    1
  6634  8070  8071    1
  6635  8070  8072    1
  6636  6070  6069    1
  6637  5891  5889    1
  6638  3246  3247    1
  6639  5839  5838    1
  6640  3051  3053    1
  6641  3051  3052    1
  6642  7676  7674    1
  6643  6577  6576    1
  6644  3939  3940    1
  6645  5885  5883    1
  6646  4293  4295    1
  6647  5225  5223    1
  6648  5719  5718    1
  6649  2422  2421    1
  6650  5884  5883    1
  6651  6148  6147    1
  6652  2423  2421    1
  6653  5224  5223    1
  6654  5838  5840    1
  6655  6091  6090    1
  6656  3540  3541    1
  6657  2124  2125    1
  6658  7344  7345    1
  6659  2622  2623    1
  6660  2622  2624    1
  6661  5718  5720    1
  6662  5414  5412    1
  6663  4045  4044    1
  6664  7194  7195    1
  6665  5890  5889    1
  6666  6111  6112    1
  6667  6149  6147    1
  6668  6096  6098    1
  6669  5413  5412    1
  6670  8016  8017    1
  6671  1893  8089    1
  6672  1915  8090    1
  6673  1920  8091    1
  6674  1921  8092    1
  6675  1925  8093    1
  6676  1929  8094    1
  6677  1941  8095    1
  6678  1942  8096    1
  6679  1945  8097    1
  6680  1952  8098    1
  6681  1953  8099    1
  6682  1987  8100    1
  6683  8079  8101    1
  6684  8080  8102    1
  6685  8081  8103    1
  6686  8082  8104    1
  6687  8083  8105    1
